<?xml version="1.0" encoding="UTF-8"?>

<!-- generated on 2022-07-12 20:00:23 by Eclipse SUMO duarouter Version 1.13.0
<configuration xmlns:xsi="http://www.w3.org/2001/XMLSchema-instance" xsi:noNamespaceSchemaLocation="http://sumo.dlr.de/xsd/duarouterConfiguration.xsd">

    <input>
        <net-file value="C:\Users\jesse\Sumo\2022-07-12-20-00-15\osm.net.xml"/>
        <route-files value="C:\Users\jesse\Sumo\2022-07-12-20-00-15\osm.passenger.trips.xml"/>
    </input>

    <output>
        <output-file value="C:\Users\jesse\Sumo\2022-07-12-20-00-15\osm.passenger.trips.xml.tmp"/>
        <write-trips value="true"/>
    </output>

    <time>
        <begin value="0"/>
        <end value="3600"/>
    </time>

    <report>
        <no-warnings value="true"/>
        <ignore-errors value="true"/>
        <no-step-log value="true"/>
    </report>

</configuration>
-->

<routes xmlns:xsi="http://www.w3.org/2001/XMLSchema-instance" xsi:noNamespaceSchemaLocation="http://sumo.dlr.de/xsd/routes_file.xsd">
    <vType id="veh_passenger" vClass="passenger"/>
    <trip id="veh0" type="veh_passenger" depart="0.00" departLane="best" departSpeed="max" from="4476709#0" to="-320480953"/>
    <trip id="veh1" type="veh_passenger" depart="1.32" departLane="best" departSpeed="max" from="293934965#0" to="1028871523#0"/>
    <trip id="veh2" type="veh_passenger" depart="2.64" departLane="best" departSpeed="max" from="48842495#0" to="23891761#0"/>
    <trip id="veh3" type="veh_passenger" depart="3.96" departLane="best" departSpeed="max" from="965387812#0" to="-435555359#2"/>
    <trip id="veh4" type="veh_passenger" depart="5.28" departLane="best" from="1028871515#0" to="1028871523#0"/>
    <trip id="veh5" type="veh_passenger" depart="6.60" departLane="best" departSpeed="max" from="4476709#0" to="1072705343#0"/>
    <trip id="veh6" type="veh_passenger" depart="7.92" departLane="best" departSpeed="max" from="48842495#0" to="23891761#0"/>
    <trip id="veh7" type="veh_passenger" depart="9.24" departLane="best" departSpeed="max" from="293934965#0" to="1028871523#0"/>
    <trip id="veh8" type="veh_passenger" depart="10.56" departLane="best" departSpeed="max" from="255369216#0" to="-435555359#2"/>
    <trip id="veh9" type="veh_passenger" depart="11.88" departLane="best" departSpeed="max" from="48842495#0" to="23891761#0"/>
    <trip id="veh10" type="veh_passenger" depart="13.20" departLane="best" departSpeed="max" from="4476709#0" to="56720835#0"/>
    <trip id="veh11" type="veh_passenger" depart="14.52" departLane="best" departSpeed="max" from="320480953" to="1072705343#0"/>
    <trip id="veh12" type="veh_passenger" depart="15.84" departLane="best" departSpeed="max" from="48842495#0" to="23891761#0"/>
    <trip id="veh13" type="veh_passenger" depart="17.16" departLane="best" departSpeed="max" from="965387812#0" to="1072705343#0"/>
    <trip id="veh14" type="veh_passenger" depart="18.49" departLane="best" departSpeed="max" from="293934965#0" to="1028871523#0"/>
    <trip id="veh15" type="veh_passenger" depart="19.81" departLane="best" departSpeed="max" from="255369216#0" to="1028871523#0"/>
    <trip id="veh16" type="veh_passenger" depart="21.13" departLane="best" departSpeed="max" from="255369216#0" to="1028871523#0"/>
    <trip id="veh17" type="veh_passenger" depart="22.45" departLane="best" departSpeed="max" from="4476709#0" to="1062854928"/>
    <trip id="veh18" type="veh_passenger" depart="23.77" departLane="best" departSpeed="max" from="320480953" to="1028871523#0"/>
    <trip id="veh19" type="veh_passenger" depart="25.09" departLane="best" departSpeed="max" from="293934965#0" to="56720835#0"/>
    <trip id="veh20" type="veh_passenger" depart="26.41" departLane="best" departSpeed="max" from="4476709#0" to="23891761#0"/>
    <trip id="veh21" type="veh_passenger" depart="27.73" departLane="best" departSpeed="max" from="255369216#0" to="23891761#0"/>
    <trip id="veh22" type="veh_passenger" depart="29.05" departLane="best" departSpeed="max" from="255369216#0" to="1062854928"/>
    <trip id="veh23" type="veh_passenger" depart="30.37" departLane="best" departSpeed="max" from="4476709#0" to="23891761#0"/>
    <trip id="veh24" type="veh_passenger" depart="31.69" departLane="best" departSpeed="max" from="965387812#0" to="435551671"/>
    <trip id="veh25" type="veh_passenger" depart="33.01" departLane="best" departSpeed="max" from="293934965#0" to="1028871523#0"/>
    <trip id="veh26" type="veh_passenger" depart="34.33" departLane="best" departSpeed="max" from="293934965#0" to="56720835#0"/>
    <trip id="veh27" type="veh_passenger" depart="35.65" departLane="best" departSpeed="max" from="4476709#0" to="1062854928"/>
    <trip id="veh28" type="veh_passenger" depart="36.97" departLane="best" departSpeed="max" from="965387812#0" to="1072705343#0"/>
    <trip id="veh29" type="veh_passenger" depart="38.29" departLane="best" departSpeed="max" from="293934965#0" to="1028871523#0"/>
    <trip id="veh30" type="veh_passenger" depart="39.61" departLane="best" departSpeed="max" from="4476709#0" to="1028871523#0"/>
    <trip id="veh31" type="veh_passenger" depart="40.93" departLane="best" departSpeed="max" from="4476709#0" to="56720835#0"/>
    <trip id="veh32" type="veh_passenger" depart="42.25" departLane="best" departSpeed="max" from="320480953" to="1028871523#0"/>
    <trip id="veh33" type="veh_passenger" depart="43.57" departLane="best" from="965387812#6" to="1072705343#0"/>
    <trip id="veh34" type="veh_passenger" depart="44.89" departLane="best" departSpeed="max" from="255369216#0" to="-320480953"/>
    <trip id="veh35" type="veh_passenger" depart="46.21" departLane="best" departSpeed="max" from="255369216#0" to="23891761#0"/>
    <trip id="veh36" type="veh_passenger" depart="47.53" departLane="best" departSpeed="max" from="48842495#0" to="1062854928"/>
    <trip id="veh37" type="veh_passenger" depart="48.85" departLane="best" departSpeed="max" from="255369216#0" to="1062854928"/>
    <trip id="veh38" type="veh_passenger" depart="50.17" departLane="best" from="965387812#6" to="1072705343#0"/>
    <trip id="veh39" type="veh_passenger" depart="51.49" departLane="best" departSpeed="max" from="965387812#0" to="56720835#0"/>
    <trip id="veh40" type="veh_passenger" depart="52.81" departLane="best" from="-435551671" to="23891761#0"/>
    <trip id="veh41" type="veh_passenger" depart="54.14" departLane="best" from="4476709#15" to="1072705343#0"/>
    <trip id="veh42" type="veh_passenger" depart="55.46" departLane="best" departSpeed="max" from="255369216#0" to="1062854928"/>
    <trip id="veh43" type="veh_passenger" depart="56.78" departLane="best" from="435552713#0" to="56720835#0"/>
    <trip id="veh44" type="veh_passenger" depart="58.10" departLane="best" departSpeed="max" from="435555359#0" to="1028871523#0"/>
    <trip id="veh45" type="veh_passenger" depart="59.42" departLane="best" departSpeed="max" from="965387812#0" to="56720835#0"/>
    <trip id="veh46" type="veh_passenger" depart="60.74" departLane="best" departSpeed="max" from="4476709#0" to="1028871523#0"/>
    <trip id="veh47" type="veh_passenger" depart="62.06" departLane="best" departSpeed="max" from="48842495#0" to="1072705343#0"/>
    <trip id="veh48" type="veh_passenger" depart="63.38" departLane="best" departSpeed="max" from="48842495#0" to="1072705343#0"/>
    <trip id="veh49" type="veh_passenger" depart="64.70" departLane="best" departSpeed="max" from="965387812#0" to="56720835#0"/>
    <trip id="veh50" type="veh_passenger" depart="66.02" departLane="best" departSpeed="max" from="255369216#0" to="1072705343#0"/>
    <trip id="veh51" type="veh_passenger" depart="67.34" departLane="best" departSpeed="max" from="255369216#0" to="435551644#0"/>
    <trip id="veh52" type="veh_passenger" depart="68.66" departLane="best" departSpeed="max" from="48842495#0" to="1028871515#0"/>
    <trip id="veh53" type="veh_passenger" depart="69.98" departLane="best" departSpeed="max" from="435555359#0" to="1072705343#0"/>
    <trip id="veh54" type="veh_passenger" depart="71.30" departLane="best" departSpeed="max" from="293934965#0" to="56720835#0"/>
    <trip id="veh55" type="veh_passenger" depart="72.62" departLane="best" from="435551670#0" to="1028871523#0"/>
    <trip id="veh56" type="veh_passenger" depart="73.94" departLane="best" departSpeed="max" from="4476709#0" to="23891761#0"/>
    <trip id="veh57" type="veh_passenger" depart="75.26" departLane="best" departSpeed="max" from="293934965#0" to="1062854928"/>
    <trip id="veh58" type="veh_passenger" depart="76.58" departLane="best" departSpeed="max" from="255369216#0" to="1028871523#0"/>
    <trip id="veh59" type="veh_passenger" depart="77.90" departLane="best" departSpeed="max" from="293934965#0" to="1028871523#0"/>
    <trip id="veh60" type="veh_passenger" depart="79.22" departLane="best" departSpeed="max" from="255369216#0" to="23891761#0"/>
    <trip id="veh61" type="veh_passenger" depart="80.54" departLane="best" departSpeed="max" from="293934965#0" to="56720835#0"/>
    <trip id="veh62" type="veh_passenger" depart="81.86" departLane="best" departSpeed="max" from="965387812#0" to="-435555359#2"/>
    <trip id="veh63" type="veh_passenger" depart="83.18" departLane="best" departSpeed="max" from="965387812#0" to="1072705343#0"/>
    <trip id="veh64" type="veh_passenger" depart="84.50" departLane="best" departSpeed="max" from="435555359#0" to="435552708#0"/>
    <trip id="veh65" type="veh_passenger" depart="85.82" departLane="best" departSpeed="max" from="48842495#0" to="1028871523#0"/>
    <trip id="veh66" type="veh_passenger" depart="87.14" departLane="best" departSpeed="max" from="255369216#0" to="1062854928"/>
    <trip id="veh67" type="veh_passenger" depart="88.46" departLane="best" from="435551671" to="1072705343#0"/>
    <trip id="veh68" type="veh_passenger" depart="89.79" departLane="best" departSpeed="max" from="48842495#0" to="23891761#0"/>
    <trip id="veh69" type="veh_passenger" depart="91.11" departLane="best" departSpeed="max" from="965387812#0" to="-435555359#2"/>
    <trip id="veh70" type="veh_passenger" depart="92.43" departLane="best" departSpeed="max" from="320480953" to="1062854928"/>
    <trip id="veh71" type="veh_passenger" depart="93.75" departLane="best" departSpeed="max" from="255369216#0" to="1072705343#0"/>
    <trip id="veh72" type="veh_passenger" depart="95.07" departLane="best" from="435551670#0" to="1028871523#0"/>
    <trip id="veh73" type="veh_passenger" depart="96.39" departLane="best" departSpeed="max" from="293934965#0" to="56720835#0"/>
    <trip id="veh75" type="veh_passenger" depart="99.03" departLane="best" departSpeed="max" from="4476709#0" to="-435551668#1"/>
    <trip id="veh76" type="veh_passenger" depart="100.35" departLane="best" from="965387812#6" to="56720835#0"/>
    <trip id="veh77" type="veh_passenger" depart="101.67" departLane="best" departSpeed="max" from="965387812#0" to="56720835#0"/>
    <trip id="veh78" type="veh_passenger" depart="102.99" departLane="best" departSpeed="max" from="435555359#0" to="1028871523#0"/>
    <trip id="veh79" type="veh_passenger" depart="104.31" departLane="best" departSpeed="max" from="965387812#0" to="965387812#6"/>
    <trip id="veh80" type="veh_passenger" depart="105.63" departLane="best" departSpeed="max" from="4476709#0" to="23891761#0"/>
    <trip id="veh81" type="veh_passenger" depart="106.95" departLane="best" departSpeed="max" from="255369216#0" to="1062854928"/>
    <trip id="veh82" type="veh_passenger" depart="108.27" departLane="best" departSpeed="max" from="965387812#0" to="1072705343#0"/>
    <trip id="veh83" type="veh_passenger" depart="109.59" departLane="best" departSpeed="max" from="4476709#0" to="23891761#0"/>
    <trip id="veh84" type="veh_passenger" depart="110.91" departLane="best" departSpeed="max" from="255369216#0" to="1072705343#0"/>
    <trip id="veh85" type="veh_passenger" depart="112.23" departLane="best" departSpeed="max" from="255369216#0" to="1028871523#0"/>
    <trip id="veh86" type="veh_passenger" depart="113.55" departLane="best" departSpeed="max" from="4476709#0" to="23891761#0"/>
    <trip id="veh87" type="veh_passenger" depart="114.87" departLane="best" departSpeed="max" from="4476709#0" to="23891761#0"/>
    <trip id="veh88" type="veh_passenger" depart="116.19" departLane="best" from="435551669#0" to="1072705343#0"/>
    <trip id="veh89" type="veh_passenger" depart="117.51" departLane="best" departSpeed="max" from="4476709#0" to="56720835#0"/>
    <trip id="veh90" type="veh_passenger" depart="118.83" departLane="best" departSpeed="max" from="293934965#0" to="1062854928"/>
    <trip id="veh91" type="veh_passenger" depart="120.15" departLane="best" departSpeed="max" from="255369216#0" to="1072705343#0"/>
    <trip id="veh92" type="veh_passenger" depart="121.47" departLane="best" departSpeed="max" from="255369216#0" to="1028871523#0"/>
    <trip id="veh93" type="veh_passenger" depart="122.79" departLane="best" departSpeed="max" from="293934965#0" to="56720835#0"/>
    <trip id="veh94" type="veh_passenger" depart="124.11" departLane="best" departSpeed="max" from="965387812#0" to="56720835#0"/>
    <trip id="veh95" type="veh_passenger" depart="125.44" departLane="best" departSpeed="max" from="320480953" to="1028871523#0"/>
    <trip id="veh96" type="veh_passenger" depart="126.76" departLane="best" departSpeed="max" from="48842495#0" to="23891761#0"/>
    <trip id="veh97" type="veh_passenger" depart="128.08" departLane="best" departSpeed="max" from="4476709#0" to="965387812#3"/>
    <trip id="veh98" type="veh_passenger" depart="129.40" departLane="best" departSpeed="max" from="4476709#0" to="-320480953"/>
    <trip id="veh99" type="veh_passenger" depart="130.72" departLane="best" departSpeed="max" from="48842495#0" to="1062854928"/>
    <trip id="veh100" type="veh_passenger" depart="132.04" departLane="best" departSpeed="max" from="4476709#0" to="56720835#0"/>
    <trip id="veh101" type="veh_passenger" depart="133.36" departLane="best" departSpeed="max" from="255369216#0" to="-435555359#2"/>
    <trip id="veh102" type="veh_passenger" depart="134.68" departLane="best" departSpeed="max" from="255369216#0" to="1072705343#0"/>
    <trip id="veh103" type="veh_passenger" depart="136.00" departLane="best" departSpeed="max" from="48842495#0" to="1028871523#0"/>
    <trip id="veh104" type="veh_passenger" depart="137.32" departLane="best" departSpeed="max" from="4476709#0" to="1028871523#0"/>
    <trip id="veh105" type="veh_passenger" depart="138.64" departLane="best" departSpeed="max" from="965387812#0" to="-435555359#2"/>
    <trip id="veh106" type="veh_passenger" depart="139.96" departLane="best" from="435551671" to="1028871523#0"/>
    <trip id="veh107" type="veh_passenger" depart="141.28" departLane="best" departSpeed="max" from="4476709#0" to="1028871523#0"/>
    <trip id="veh108" type="veh_passenger" depart="142.60" departLane="best" departSpeed="max" from="48842495#0" to="1072705343#0"/>
    <trip id="veh109" type="veh_passenger" depart="143.92" departLane="best" departSpeed="max" from="965387812#0" to="1072705343#0"/>
    <trip id="veh110" type="veh_passenger" depart="145.24" departLane="best" departSpeed="max" from="965387812#0" to="1072705343#0"/>
    <trip id="veh111" type="veh_passenger" depart="146.56" departLane="best" departSpeed="max" from="255369216#0" to="1028871515#0"/>
    <trip id="veh112" type="veh_passenger" depart="147.88" departLane="best" departSpeed="max" from="293934965#0" to="56720835#0"/>
    <trip id="veh113" type="veh_passenger" depart="149.20" departLane="best" departSpeed="max" from="293934965#0" to="-435555359#2"/>
    <trip id="veh114" type="veh_passenger" depart="150.52" departLane="best" departSpeed="max" from="965387812#0" to="56720835#0"/>
    <trip id="veh115" type="veh_passenger" depart="151.84" departLane="best" from="1022314515#0" to="23891761#0"/>
    <trip id="veh116" type="veh_passenger" depart="153.16" departLane="best" departSpeed="max" from="293934965#0" to="56720835#0"/>
    <trip id="veh117" type="veh_passenger" depart="154.48" departLane="best" departSpeed="max" from="48842495#0" to="1028871523#0"/>
    <trip id="veh118" type="veh_passenger" depart="155.80" departLane="best" departSpeed="max" from="48842495#0" to="-435555359#2"/>
    <trip id="veh119" type="veh_passenger" depart="157.12" departLane="best" departSpeed="max" from="965387812#0" to="56720835#0"/>
    <trip id="veh120" type="veh_passenger" depart="158.44" departLane="best" departSpeed="max" from="48842495#0" to="1028871523#0"/>
    <trip id="veh121" type="veh_passenger" depart="159.76" departLane="best" from="1022314515#0" to="1028871523#0"/>
    <trip id="veh122" type="veh_passenger" depart="161.08" departLane="best" departSpeed="max" from="293934965#0" to="56720835#0"/>
    <trip id="veh123" type="veh_passenger" depart="162.41" departLane="best" departSpeed="max" from="4476709#0" to="1062854928"/>
    <trip id="veh124" type="veh_passenger" depart="163.73" departLane="best" departSpeed="max" from="965387812#0" to="1072705343#0"/>
    <trip id="veh125" type="veh_passenger" depart="165.05" departLane="best" departSpeed="max" from="965387812#0" to="-435555359#2"/>
    <trip id="veh126" type="veh_passenger" depart="166.37" departLane="best" departSpeed="max" from="255369216#0" to="1062854928"/>
    <trip id="veh127" type="veh_passenger" depart="167.69" departLane="best" departSpeed="max" from="48842495#0" to="1062854928"/>
    <trip id="veh128" type="veh_passenger" depart="169.01" departLane="best" departSpeed="max" from="4476709#0" to="1072705343#0"/>
    <trip id="veh129" type="veh_passenger" depart="170.33" departLane="best" departSpeed="max" from="320480953" to="1072705343#0"/>
    <trip id="veh130" type="veh_passenger" depart="171.65" departLane="best" departSpeed="max" from="4476709#0" to="23891761#0"/>
    <trip id="veh131" type="veh_passenger" depart="172.97" departLane="best" departSpeed="max" from="48842495#0" to="23891761#0"/>
    <trip id="veh132" type="veh_passenger" depart="174.29" departLane="best" departSpeed="max" from="320480953" to="-435555359#2"/>
    <trip id="veh133" type="veh_passenger" depart="175.61" departLane="best" departSpeed="max" from="4476709#0" to="1062854928"/>
    <trip id="veh134" type="veh_passenger" depart="176.93" departLane="best" departSpeed="max" from="293934965#0" to="56720835#0"/>
    <trip id="veh135" type="veh_passenger" depart="178.25" departLane="best" departSpeed="max" from="48842495#0" to="1062854928"/>
    <trip id="veh136" type="veh_passenger" depart="179.57" departLane="best" departSpeed="max" from="293934965#0" to="1062854928"/>
    <trip id="veh137" type="veh_passenger" depart="180.89" departLane="best" departSpeed="max" from="320480953" to="1062854928"/>
    <trip id="veh138" type="veh_passenger" depart="182.21" departLane="best" departSpeed="max" from="255369216#0" to="1062854928"/>
    <trip id="veh139" type="veh_passenger" depart="183.53" departLane="best" from="-435551668#1" to="1028871523#0"/>
    <trip id="veh140" type="veh_passenger" depart="184.85" departLane="best" from="435551673#0" to="1072705343#0"/>
    <trip id="veh141" type="veh_passenger" depart="186.17" departLane="best" departSpeed="max" from="4476709#0" to="1072705343#0"/>
    <trip id="veh142" type="veh_passenger" depart="187.49" departLane="best" departSpeed="max" from="48842495#0" to="1028871523#0"/>
    <trip id="veh143" type="veh_passenger" depart="188.81" departLane="best" departSpeed="max" from="255369216#0" to="1072705343#0"/>
    <trip id="veh144" type="veh_passenger" depart="190.13" departLane="best" departSpeed="max" from="4476709#0" to="1062854928"/>
    <trip id="veh145" type="veh_passenger" depart="191.45" departLane="best" departSpeed="max" from="48842495#0" to="293934965#3"/>
    <trip id="veh146" type="veh_passenger" depart="192.77" departLane="best" departSpeed="max" from="965387812#0" to="-435555359#2"/>
    <trip id="veh147" type="veh_passenger" depart="194.09" departLane="best" from="435551668#0" to="23891761#0"/>
    <trip id="veh148" type="veh_passenger" depart="195.41" departLane="best" departSpeed="max" from="435555359#0" to="1028871523#0"/>
    <trip id="veh149" type="veh_passenger" depart="196.73" departLane="best" departSpeed="max" from="4476709#0" to="-320480953"/>
    <trip id="veh150" type="veh_passenger" depart="198.06" departLane="best" departSpeed="max" from="255369216#0" to="1062854928"/>
    <trip id="veh151" type="veh_passenger" depart="199.38" departLane="best" departSpeed="max" from="4476709#0" to="-320480953"/>
    <trip id="veh152" type="veh_passenger" depart="200.70" departLane="best" departSpeed="max" from="293934965#0" to="56720835#0"/>
    <trip id="veh153" type="veh_passenger" depart="202.02" departLane="best" departSpeed="max" from="4476709#0" to="56720835#0"/>
    <trip id="veh154" type="veh_passenger" depart="203.34" departLane="best" departSpeed="max" from="48842495#0" to="1072705343#0"/>
    <trip id="veh155" type="veh_passenger" depart="204.66" departLane="best" departSpeed="max" from="48842495#0" to="1072705343#0"/>
    <trip id="veh156" type="veh_passenger" depart="205.98" departLane="best" departSpeed="max" from="435555359#0" to="1028871523#0"/>
    <trip id="veh157" type="veh_passenger" depart="207.30" departLane="best" departSpeed="max" from="48842495#0" to="1072705343#0"/>
    <trip id="veh158" type="veh_passenger" depart="208.62" departLane="best" departSpeed="max" from="4476709#0" to="1028871523#0"/>
    <trip id="veh159" type="veh_passenger" depart="209.94" departLane="best" departSpeed="max" from="255369216#0" to="1028871523#0"/>
    <trip id="veh160" type="veh_passenger" depart="211.26" departLane="best" departSpeed="max" from="293934965#0" to="1062854928"/>
    <trip id="veh161" type="veh_passenger" depart="212.58" departLane="best" departSpeed="max" from="4476709#0" to="1028871519#0"/>
    <trip id="veh162" type="veh_passenger" depart="213.90" departLane="best" from="435551644#0" to="1072705343#0"/>
    <trip id="veh163" type="veh_passenger" depart="215.22" departLane="best" from="435551668#0" to="1028871523#0"/>
    <trip id="veh164" type="veh_passenger" depart="216.54" departLane="best" departSpeed="max" from="4476709#0" to="23891761#0"/>
    <trip id="veh165" type="veh_passenger" depart="217.86" departLane="best" departSpeed="max" from="965387812#0" to="56720835#0"/>
    <trip id="veh166" type="veh_passenger" depart="219.18" departLane="best" from="435551669#0" to="23891761#0"/>
    <trip id="veh167" type="veh_passenger" depart="220.50" departLane="best" departSpeed="max" from="4476709#0" to="23891761#0"/>
    <trip id="veh168" type="veh_passenger" depart="221.82" departLane="best" departSpeed="max" from="293934965#0" to="1028871523#0"/>
    <trip id="veh169" type="veh_passenger" depart="223.14" departLane="best" departSpeed="max" from="4476709#0" to="-320480953"/>
    <trip id="veh170" type="veh_passenger" depart="224.46" departLane="best" departSpeed="max" from="320480953" to="1072705343#0"/>
    <trip id="veh171" type="veh_passenger" depart="225.78" departLane="best" from="1028871515#0" to="23891761#0"/>
    <trip id="veh172" type="veh_passenger" depart="227.10" departLane="best" departSpeed="max" from="255369216#0" to="1072705343#0"/>
    <trip id="veh173" type="veh_passenger" depart="228.42" departLane="best" departSpeed="max" from="255369216#0" to="1062854928"/>
    <trip id="veh174" type="veh_passenger" depart="229.74" departLane="best" departSpeed="max" from="293934965#0" to="1062854928"/>
    <trip id="veh175" type="veh_passenger" depart="231.06" departLane="best" departSpeed="max" from="48842495#0" to="1062854928"/>
    <trip id="veh176" type="veh_passenger" depart="232.38" departLane="best" departSpeed="max" from="48842495#0" to="4476709#15"/>
    <trip id="veh177" type="veh_passenger" depart="233.71" departLane="best" departSpeed="max" from="293934965#0" to="-435555359#2"/>
    <trip id="veh178" type="veh_passenger" depart="235.03" departLane="best" from="1022314515#0" to="1072705343#0"/>
    <trip id="veh179" type="veh_passenger" depart="236.35" departLane="best" departSpeed="max" from="4476709#0" to="435551673#0"/>
    <trip id="veh180" type="veh_passenger" depart="237.67" departLane="best" departSpeed="max" from="4476709#0" to="293934965#3"/>
    <trip id="veh181" type="veh_passenger" depart="238.99" departLane="best" from="1022314515#0" to="1028871523#0"/>
    <trip id="veh182" type="veh_passenger" depart="240.31" departLane="best" departSpeed="max" from="255369216#0" to="23891761#0"/>
    <trip id="veh183" type="veh_passenger" depart="241.63" departLane="best" departSpeed="max" from="4476709#0" to="1028871523#0"/>
    <trip id="veh184" type="veh_passenger" depart="242.95" departLane="best" departSpeed="max" from="255369216#0" to="23891761#0"/>
    <trip id="veh185" type="veh_passenger" depart="244.27" departLane="best" departSpeed="max" from="48842495#0" to="-435555359#2"/>
    <trip id="veh186" type="veh_passenger" depart="245.59" departLane="best" departSpeed="max" from="255369216#0" to="-320480953"/>
    <trip id="veh187" type="veh_passenger" depart="246.91" departLane="best" departSpeed="max" from="48842495#0" to="-435555359#2"/>
    <trip id="veh188" type="veh_passenger" depart="248.23" departLane="best" departSpeed="max" from="48842495#0" to="23891761#0"/>
    <trip id="veh189" type="veh_passenger" depart="249.55" departLane="best" departSpeed="max" from="255369216#0" to="435551669#0"/>
    <trip id="veh190" type="veh_passenger" depart="250.87" departLane="best" departSpeed="max" from="48842495#0" to="1062854928"/>
    <trip id="veh191" type="veh_passenger" depart="252.19" departLane="best" from="435551673#0" to="1062854928"/>
    <trip id="veh192" type="veh_passenger" depart="253.51" departLane="best" departSpeed="max" from="4476709#0" to="4476709#15"/>
    <trip id="veh193" type="veh_passenger" depart="254.83" departLane="best" departSpeed="max" from="48842495#0" to="1062854928"/>
    <trip id="veh194" type="veh_passenger" depart="256.15" departLane="best" departSpeed="max" from="4476709#0" to="1072705343#0"/>
    <trip id="veh195" type="veh_passenger" depart="257.47" departLane="best" departSpeed="max" from="293934965#0" to="56720835#0"/>
    <trip id="veh196" type="veh_passenger" depart="258.79" departLane="best" departSpeed="max" from="48842495#0" to="-435555359#2"/>
    <trip id="veh197" type="veh_passenger" depart="260.11" departLane="best" from="435552716#0" to="23891761#0"/>
    <trip id="veh198" type="veh_passenger" depart="261.43" departLane="best" departSpeed="max" from="293934965#0" to="56720835#0"/>
    <trip id="veh199" type="veh_passenger" depart="262.75" departLane="best" departSpeed="max" from="48842495#0" to="1028871523#0"/>
    <trip id="veh200" type="veh_passenger" depart="264.07" departLane="best" departSpeed="max" from="255369216#0" to="23891761#0"/>
    <trip id="veh201" type="veh_passenger" depart="265.39" departLane="best" departSpeed="max" from="48842495#0" to="23891761#0"/>
    <trip id="veh202" type="veh_passenger" depart="266.71" departLane="best" departSpeed="max" from="435555359#0" to="435552708#0"/>
    <trip id="veh203" type="veh_passenger" depart="268.03" departLane="best" departSpeed="max" from="255369216#0" to="1028871523#0"/>
    <trip id="veh204" type="veh_passenger" depart="269.36" departLane="best" departSpeed="max" from="48842495#0" to="1062854928"/>
    <trip id="veh205" type="veh_passenger" depart="270.68" departLane="best" departSpeed="max" from="4476709#0" to="1072705343#0"/>
    <trip id="veh206" type="veh_passenger" depart="272.00" departLane="best" departSpeed="max" from="4476709#0" to="1062854928"/>
    <trip id="veh207" type="veh_passenger" depart="273.32" departLane="best" departSpeed="max" from="48842495#0" to="1062854928"/>
    <trip id="veh208" type="veh_passenger" depart="274.64" departLane="best" departSpeed="max" from="48842495#0" to="1028871523#0"/>
    <trip id="veh210" type="veh_passenger" depart="277.28" departLane="best" departSpeed="max" from="4476709#0" to="435551644#0"/>
    <trip id="veh211" type="veh_passenger" depart="278.60" departLane="best" departSpeed="max" from="255369216#0" to="1028871523#0"/>
    <trip id="veh212" type="veh_passenger" depart="279.92" departLane="best" departSpeed="max" from="435555359#0" to="23891761#0"/>
    <trip id="veh213" type="veh_passenger" depart="281.24" departLane="best" departSpeed="max" from="965387812#0" to="1072705343#0"/>
    <trip id="veh214" type="veh_passenger" depart="282.56" departLane="best" departSpeed="max" from="293934965#0" to="-435555359#2"/>
    <trip id="veh215" type="veh_passenger" depart="283.88" departLane="best" departSpeed="max" from="293934965#0" to="1028871523#0"/>
    <trip id="veh216" type="veh_passenger" depart="285.20" departLane="best" departSpeed="max" from="255369216#0" to="-320480953"/>
    <trip id="veh217" type="veh_passenger" depart="286.52" departLane="best" departSpeed="max" from="4476709#0" to="1028871523#0"/>
    <trip id="veh218" type="veh_passenger" depart="287.84" departLane="best" departSpeed="max" from="965387812#0" to="1072705343#0"/>
    <trip id="veh219" type="veh_passenger" depart="289.16" departLane="best" departSpeed="max" from="48842495#0" to="1028871515#0"/>
    <trip id="veh220" type="veh_passenger" depart="290.48" departLane="best" departSpeed="max" from="965387812#0" to="1072705343#0"/>
    <trip id="veh221" type="veh_passenger" depart="291.80" departLane="best" departSpeed="max" from="965387812#0" to="1072705343#0"/>
    <trip id="veh222" type="veh_passenger" depart="293.12" departLane="best" departSpeed="max" from="255369216#0" to="-435551668#1"/>
    <trip id="veh223" type="veh_passenger" depart="294.44" departLane="best" departSpeed="max" from="965387812#0" to="1072705343#0"/>
    <trip id="veh224" type="veh_passenger" depart="295.76" departLane="best" departSpeed="max" from="48842495#0" to="1062854928"/>