<?xml version="1.0" encoding="UTF-8"?>

<!-- generated on 2022-07-12 20:00:22 by Eclipse SUMO polyconvert Version 1.13.0
<configuration xmlns:xsi="http://www.w3.org/2001/XMLSchema-instance" xsi:noNamespaceSchemaLocation="http://sumo.dlr.de/xsd/polyconvertConfiguration.xsd">

    <input>
        <net-file value="osm.net.xml"/>
        <osm-files value="osm_bbox.osm.xml.gz"/>
        <osm.keep-full-type value="true"/>
        <type-file value="C:\Program%20Files%20(x86)\Eclipse\Sumo\data\typemap\osmPolyconvert.typ.xml"/>
    </input>

    <output>
        <output-file value="osm.poly.xml"/>
    </output>

    <processing>
        <poi-layer-offset value="5"/>
    </processing>

    <report>
        <verbose value="true"/>
    </report>

</configuration>
-->

<additional xmlns:xsi="http://www.w3.org/2001/XMLSchema-instance" xsi:noNamespaceSchemaLocation="http://sumo.dlr.de/xsd/additional_file.xsd">
    <!-- Junction 00 -->
    <e1Detector id="L00_0_0" lane="4476709#0_0" pos="356" freq="100" file="cross.out" friendlyPos="true"/>
    <e1Detector id="L00_0_1" lane="4476709#0_1" pos="356" freq="100" file="cross.out" friendlyPos="true"/>
    <e1Detector id="L00_0_2" lane="4476709#0_2" pos="356" freq="100" file="cross.out" friendlyPos="true"/>
    <e1Detector id="L00_1_0" lane="1028871519#0_0" pos="94" freq="100" file="cross.out" friendlyPos="true"/>
    <e1Detector id="L00_1_1" lane="1028871519#0_1" pos="94" freq="100" file="cross.out" friendlyPos="true"/>
    <e1Detector id="L00_1_2" lane="1028871519#0_2" pos="94" freq="100" file="cross.out" friendlyPos="true"/>
    <e1Detector id="L00_1_3" lane="1028871519#0_3" pos="94" freq="100" file="cross.out" friendlyPos="true"/>

    <!-- Junction 01 -->
    <e1Detector id="L01_1_0" lane="1028871515#0_0" pos="102" freq="100" file="cross.out" friendlyPos="true"/>
    <e1Detector id="L01_1_1" lane="1028871515#0_1" pos="102" freq="100" file="cross.out" friendlyPos="true"/>
    <e1Detector id="L01_1_2" lane="1028871515#0_2" pos="102" freq="100" file="cross.out" friendlyPos="true"/>
    <e1Detector id="L01_2_0" lane="435551644#0_0" pos="62" freq="100" file="cross.out" friendlyPos="true"/>
    <e1Detector id="L01_2_1" lane="435551644#0_1" pos="62" freq="100" file="cross.out" friendlyPos="true"/>
    <e1Detector id="L01_2_2" lane="435551644#0_2" pos="62" freq="100" file="cross.out" friendlyPos="true"/>
    <e1Detector id="L01_2_3" lane="435551644#0_3" pos="62" freq="100" file="cross.out" friendlyPos="true"/>

    <!-- Junction 02 -->
    <e1Detector id="L02_0_0" lane="435555359#0_0" pos="72" freq="100" file="cross.out" friendlyPos="true"/>
    <e1Detector id="L02_1_0" lane="255369216#0_0" pos="296" freq="100" file="cross.out" friendlyPos="true"/>
    <e1Detector id="L02_1_1" lane="255369216#0_1" pos="296" freq="100" file="cross.out" friendlyPos="true"/>
    <e1Detector id="L02_1_2" lane="255369216#0_2" pos="296" freq="100" file="cross.out" friendlyPos="true"/>
    <e1Detector id="L02_2_0" lane="-435551670#1_0" pos="8" freq="100" file="cross.out" friendlyPos="true"/>
    <e1Detector id="L02_2_1" lane="-435551670#1_1" pos="8" freq="100" file="cross.out" friendlyPos="true"/>

    <!-- Junction 03 -->
    <e1Detector id="L03_0_0" lane="4476709#12_0" pos="61" freq="100" file="cross.out" friendlyPos="true"/>
    <e1Detector id="L03_0_1" lane="4476709#12_1" pos="61" freq="100" file="cross.out" friendlyPos="true"/>
    <e1Detector id="L03_0_2" lane="4476709#12_2" pos="61" freq="100" file="cross.out" friendlyPos="true"/>
    <e1Detector id="L03_3_0" lane="965387812#0_0" pos="95" freq="100" file="cross.out" friendlyPos="true"/>
    <e1Detector id="L03_3_1" lane="965387812#0_1" pos="95" freq="100" file="cross.out" friendlyPos="true"/>
    <e1Detector id="L03_3_2" lane="965387812#0_2" pos="95" freq="100" file="cross.out" friendlyPos="true"/>

    <!-- Junction 04 -->
    <e1Detector id="L04_2_0" lane="293934965#3_0" pos="63" freq="100" file="cross.out" friendlyPos="true"/>
    <e1Detector id="L04_2_1" lane="293934965#3_1" pos="63" freq="100" file="cross.out" friendlyPos="true"/>
    <e1Detector id="L04_2_2" lane="293934965#3_2" pos="63" freq="100" file="cross.out" friendlyPos="true"/>
    <e1Detector id="L04_3_0" lane="965387812#3_0" pos="96" freq="100" file="cross.out" friendlyPos="true"/>
    <e1Detector id="L04_3_1" lane="965387812#3_1" pos="96" freq="100" file="cross.out" friendlyPos="true"/>
    <e1Detector id="L04_3_2" lane="965387812#3_2" pos="96" freq="100" file="cross.out" friendlyPos="true"/>

    <!-- Junction 05 -->
    <e1Detector id="L05_0_0" lane="435551668#0_0" pos="8" freq="100" file="cross.out" friendlyPos="true"/>
    <e1Detector id="L05_0_1" lane="435551668#0_1" pos="8" freq="100" file="cross.out" friendlyPos="true"/>
    <e1Detector id="L05_2_0" lane="-435551669#2_0" pos="64" freq="100" file="cross.out" friendlyPos="true"/>
    <e1Detector id="L05_3_0" lane="965387812#6_0" pos="97" freq="100" file="cross.out" friendlyPos="true"/>
    <e1Detector id="L05_3_1" lane="965387812#6_1" pos="97" freq="100" file="cross.out" friendlyPos="true"/>
    <e1Detector id="L05_3_2" lane="965387812#6_2" pos="97" freq="100" file="cross.out" friendlyPos="true"/>

    <!-- Junction 06 -->
    <e1Detector id="L06_0_0" lane="4476709#15_0" pos="64" freq="100" file="cross.out" friendlyPos="true"/>
    <e1Detector id="L06_0_1" lane="4476709#15_1" pos="64" freq="100" file="cross.out" friendlyPos="true"/>
    <e1Detector id="L06_0_2" lane="4476709#15_2" pos="64" freq="100" file="cross.out" friendlyPos="true"/>
    <e1Detector id="L06_1_0" lane="435552708#0_0" pos="20" freq="100" file="cross.out" friendlyPos="true"/>
    <e1Detector id="L06_1_1" lane="435552708#0_1" pos="20" freq="100" file="cross.out" friendlyPos="true"/>
    <e1Detector id="L06_1_2" lane="435552708#0_2" pos="20" freq="100" file="cross.out" friendlyPos="true"/>
    <e1Detector id="L06_1_3" lane="435552708#0_3" pos="20" freq="100" file="cross.out" friendlyPos="true"/>

    <!-- Junction 07 -->
    <e1Detector id="L07_1_0" lane="435552713#0_0" pos="46" freq="100" file="cross.out" friendlyPos="true"/>
    <e1Detector id="L07_1_1" lane="435552713#0_1" pos="46" freq="100" file="cross.out" friendlyPos="true"/>
    <e1Detector id="L07_1_2" lane="435552713#0_2" pos="46" freq="100" file="cross.out" friendlyPos="true"/>
    <e1Detector id="L07_1_3" lane="435552713#0_3" pos="46" freq="100" file="cross.out" friendlyPos="true"/>
    <e1Detector id="L07_2_0" lane="293934965#0_0" pos="72" freq="100" file="cross.out" friendlyPos="true"/>
    <e1Detector id="L07_2_1" lane="293934965#0_1" pos="72" freq="100" file="cross.out" friendlyPos="true"/>
    <e1Detector id="L07_2_2" lane="293934965#0_2" pos="72" freq="100" file="cross.out" friendlyPos="true"/>

    <!-- Junction 08 -->
    <e1Detector id="L08_0_0" lane="435551669#0_0" pos="64" freq="100" file="cross.out" friendlyPos="true"/>
    <e1Detector id="L08_1_0" lane="1022314515#0_0" pos="35" freq="100" file="cross.out" friendlyPos="true"/>
    <e1Detector id="L08_1_1" lane="1022314515#0_1" pos="35" freq="100" file="cross.out" friendlyPos="true"/>
    <e1Detector id="L08_1_2" lane="1022314515#0_2" pos="35" freq="100" file="cross.out" friendlyPos="true"/>
    <e1Detector id="L08_1_3" lane="1022314515#0_3" pos="35" freq="100" file="cross.out" friendlyPos="true"/>
    <e1Detector id="L08_2_0" lane="435551673#0_0" pos="6" freq="100" file="cross.out" friendlyPos="true"/>
    <e1Detector id="L08_2_1" lane="435551673#0_1" pos="6" freq="100" file="cross.out" friendlyPos="true"/>
    
    
    <location netOffset="-447527.39,-4637667.58" convBoundary="0.00,-118.97,683.64,824.71" origBoundary="-87.632534,41.888156,-87.624295,41.896634" projParameter="+proj=utm +zone=16 +ellps=WGS84 +datum=WGS84 +units=m +no_defs"/>

    <poly id="1006040739" type="building.yes" color="255,230,230" fill="1" layer="-1.00" shape="163.196790,524.616658 178.760558,524.679945 179.110773,495.564381 165.546341,495.508606 163.463387,497.677964 163.196790,524.616658"/>
    <poly id="1010046900" type="building.roof" color="255,230,230" fill="1" layer="-1.00" shape="60.425737,432.215548 88.634675,432.507536 99.719153,432.625828 99.880172,417.302016 100.225759,385.344024 100.274078,380.635847 100.322480,375.938772 100.383062,370.642028 61.080926,370.220698 61.067893,371.830781 60.992836,378.537759 60.709611,405.421064 60.434806,431.193972 60.425737,432.215548"/>
    <poly id="1042025676" type="landuse.grass" color="194,194,130" fill="1" layer="-3.00" shape="30.173669,434.992146 30.183981,430.761692 54.634827,431.059029 54.666389,435.344692 30.173669,434.992146"/>
    <poly id="1042025677" type="landuse.grass" color="194,194,130" fill="1" layer="-3.00" shape="28.897074,428.372849 54.792684,428.837196 54.770437,423.563266 48.688971,423.508125 31.805717,423.421529 28.397455,422.491752 28.897074,428.372849"/>
    <poly id="1042025678" type="landuse.grass" color="194,194,130" fill="1" layer="-3.00" shape="48.051532,407.923710 50.158148,407.841574 50.066531,408.919274 51.518277,408.908583 51.658189,405.376685 53.450059,405.363489 53.496147,402.609518 57.942887,402.610081 57.897615,405.475080 60.709611,405.421064 60.992836,378.537759 29.869344,377.923145 29.176921,378.527828 29.037741,379.905669 28.951526,381.716151 28.864739,383.448914 29.687276,382.487965 31.185612,382.043895 33.548748,381.871038 48.838994,381.924958 48.051532,407.923710"/>
    <poly id="1042025684" type="landuse.grass" color="194,194,130" fill="1" layer="-3.00" shape="30.184689,368.927105 101.694977,369.666383 101.641338,375.906862 100.322480,375.938772 100.383062,370.642028 61.080926,370.220698 61.067893,371.830781 39.079041,371.293214 37.334401,370.961862 30.184689,368.927105"/>
    <poly id="1042025688" type="landuse.grass" color="194,194,130" fill="1" layer="-3.00" shape="58.872452,435.335925 71.565795,435.375705 88.539617,435.372901 88.634675,432.507536 60.425737,432.215548 60.434806,431.193972 58.900517,431.260787 58.872452,435.335925"/>
    <poly id="1042025689" type="landuse.grass" color="194,194,130" fill="1" layer="-3.00" shape="100.225759,385.344024 101.412047,385.335295 101.224073,417.292128 99.880172,417.302016 100.225759,385.344024"/>
    <poly id="1065362269" type="landuse.retail" color="194,194,130" fill="1" layer="-3.00" shape="2.486537,437.960929 105.765848,439.232248 106.533816,366.577361 3.719978,365.569063 2.486537,437.960929"/>
    <poly id="144126597" type="building.office" color="255,230,230" fill="1" layer="-1.00" shape="390.009087,261.525090 471.173492,261.753331 471.366518,227.986662 397.399656,226.173492 396.692853,254.303429 390.009087,261.525090"/>
    <poly id="153291614" type="amenity.restaurant" color="237,199,199" fill="1" layer="-1.00" shape="104.013496,226.982369 72.211782,226.738959 71.846476,257.131519 103.656269,257.363762 104.013496,226.982369"/>
    <poly id="153291614#1" type="building.yes" color="255,230,230" fill="1" layer="-1.00" shape="104.013496,226.982369 72.211782,226.738959 71.846476,257.131519 103.656269,257.363762 104.013496,226.982369"/>
    <poly id="153291616" type="building.hotel" color="255,230,230" fill="1" layer="-1.00" shape="196.863234,192.678949 196.706403,231.197611 228.117280,231.322308 228.282577,192.803587 196.863234,192.678949"/>
    <poly id="153291616#1" type="tourism.hotel" color="207,245,201" fill="1" layer="-2.00" shape="196.863234,192.678949 196.706403,231.197611 228.117280,231.322308 228.282577,192.803587 196.863234,192.678949"/>
    <poly id="153291617" type="building.yes" color="255,230,230" fill="1" layer="-1.00" shape="128.820450,192.124150 128.169122,258.116143 155.640493,258.424936 155.925805,211.455675 164.447429,211.626219 164.394272,220.198395 184.116834,220.486522 184.574071,203.672696 189.103649,203.639425 189.229662,192.557359 128.820450,192.124150"/>
    <poly id="153291617#1" type="tourism.hotel" color="207,245,201" fill="1" layer="-2.00" shape="128.820450,192.124150 128.169122,258.116143 155.640493,258.424936 155.925805,211.455675 164.447429,211.626219 164.394272,220.198395 184.116834,220.486522 184.574071,203.672696 189.103649,203.639425 189.229662,192.557359 128.820450,192.124150"/>
    <poly id="153291620" type="building.office" color="255,230,230" fill="1" layer="-1.00" shape="250.491128,228.870840 250.138151,258.785845 274.274160,259.064049 274.627320,229.160150 250.491128,228.870840"/>
    <poly id="153291621" type="building.office" color="255,230,230" fill="1" layer="-1.00" shape="54.869908,190.347721 29.580507,190.078754 29.248282,221.559202 54.537570,221.828167 54.869908,190.347721"/>
    <poly id="153291625" type="amenity.events_venue" color="237,199,199" fill="1" layer="-1.00" shape="71.846476,257.131519 72.211782,226.738959 52.580892,226.505984 52.215670,256.898546 71.846476,257.131519"/>
    <poly id="153291625#1" type="building.yes" color="255,230,230" fill="1" layer="-1.00" shape="71.846476,257.131519 72.211782,226.738959 52.580892,226.505984 52.215670,256.898546 71.846476,257.131519"/>
    <poly id="153291629" type="building.office" color="255,230,230" fill="1" layer="-1.00" shape="77.777521,222.078996 78.068072,190.543343 54.869908,190.347721 54.537570,221.828167 77.777521,222.078996"/>
    <poly id="153291630" type="building.office" color="255,230,230" fill="1" layer="-1.00" shape="162.065401,227.299445 161.852220,258.123907 192.591587,258.331103 192.804901,227.506643 162.065401,227.299445"/>
    <poly id="153291633" type="building.yes" color="255,230,230" fill="1" layer="-1.00" shape="228.117280,231.322308 196.706403,231.197611 196.540093,258.257691 227.984849,258.493170 228.117280,231.322308"/>
    <poly id="153291635" type="building.office" color="255,230,230" fill="1" layer="-1.00" shape="250.153519,191.899176 249.748820,222.680619 305.572065,223.414937 305.985301,192.633439 250.153519,191.899176"/>
    <poly id="154079698" type="building.office" color="255,230,230" fill="1" layer="-1.00" shape="286.738829,253.898426 286.936156,228.759006 324.122283,229.019443 323.958171,254.180823 299.524149,253.993461 299.487165,259.134581 295.189419,259.099463 295.226400,253.958343 286.738829,253.898426"/>
    <poly id="154079705" type="building.yes" color="255,230,230" fill="1" layer="-1.00" shape="381.598508,223.235687 382.088108,193.774938 450.400506,194.907559 450.209261,206.201054 431.107496,222.740315 423.191822,222.609434 423.168299,223.930904 381.598508,223.235687"/>
    <poly id="154079708" type="amenity.pub" color="237,199,199" fill="1" layer="-1.00" shape="323.958171,254.180823 323.921901,259.421867 360.112116,259.656476 360.321030,229.265095 324.122283,229.019443 323.958171,254.180823"/>
    <poly id="154079708#1" type="building.yes" color="255,230,230" fill="1" layer="-1.00" shape="323.958171,254.180823 323.921901,259.421867 360.112116,259.656476 360.321030,229.265095 324.122283,229.019443 323.958171,254.180823"/>
    <poly id="154412224" type="building.office" color="255,230,230" fill="1" layer="-1.00" shape="77.934096,206.155639 77.777521,222.078996 104.170240,222.351119 104.351435,206.383169 77.934096,206.155639"/>
    <poly id="158621256" type="amenity.restaurant" color="237,199,199" fill="1" layer="-1.00" shape="188.983152,406.354150 160.607065,405.907543 156.284383,406.983029 153.337184,408.958882 150.710801,412.819947 149.774811,417.534648 150.387257,421.849350 152.312920,425.366061 156.050272,428.181048 160.391137,429.581476 166.074648,429.672948 165.978171,435.736087 188.504639,436.081335 188.983152,406.354150"/>
    <poly id="158621256#1" type="building.commercial" color="255,230,230" fill="1" layer="-1.00" shape="188.983152,406.354150 160.607065,405.907543 156.284383,406.983029 153.337184,408.958882 150.710801,412.819947 149.774811,417.534648 150.387257,421.849350 152.312920,425.366061 156.050272,428.181048 160.391137,429.581476 166.074648,429.672948 165.978171,435.736087 188.504639,436.081335 188.983152,406.354150"/>
    <poly id="158621265" type="building.hotel" color="255,230,230" fill="1" layer="-1.00" shape="304.601329,372.828672 303.839115,437.489053 351.554101,438.049966 352.316667,373.378492 304.601329,372.828672"/>
    <poly id="158621265#1" type="tourism.hotel" color="207,245,201" fill="1" layer="-2.00" shape="304.601329,372.828672 303.839115,437.489053 351.554101,438.049966 352.316667,373.378492 304.601329,372.828672"/>
    <poly id="158621268" type="building.yes" color="255,230,230" fill="1" layer="-1.00" shape="164.792654,371.500808 129.317153,371.361877 129.221694,397.866280 164.688686,397.994168 164.792654,371.500808"/>
    <poly id="158621273" type="building.yes" color="255,230,230" fill="1" layer="-1.00" shape="195.633526,405.927789 195.117421,436.188211 223.087059,436.660143 223.603283,406.399725 195.633526,405.927789"/>
    <poly id="158621274" type="building.apartments" color="255,230,230" fill="1" layer="-1.00" shape="248.226713,373.675102 247.932664,411.617403 247.787999,433.736336 298.590878,434.529617 298.749363,412.010865 299.043682,374.068569 248.226713,373.675102"/>
    <poly id="199519257" type="building.apartments" color="255,230,230" fill="1" layer="-1.00" shape="169.731465,400.077851 169.967698,370.130378 223.663734,370.557669 223.418979,400.505199 169.731465,400.077851"/>
    <poly id="202624279" type="amenity.restaurant" color="237,199,199" fill="1" layer="-1.00" shape="359.563440,224.374067 359.987400,193.892287 318.907939,193.338188 318.492451,223.819911 359.563440,224.374067"/>
    <poly id="202624279#1" type="building.yes" color="255,230,230" fill="1" layer="-1.00" shape="359.563440,224.374067 359.987400,193.892287 318.907939,193.338188 318.492451,223.819911 359.563440,224.374067"/>
    <poly id="205124172" type="building.apartments" color="255,230,230" fill="1" layer="-1.00" shape="258.256111,344.177651 258.401178,333.417443 259.620657,333.408497 259.778838,324.435832 269.823394,312.825782 288.243493,313.157056 288.189987,314.911777 304.773290,314.790219 304.737544,325.760587 300.398848,325.792387 300.254532,336.663621 290.112841,346.342358 274.922404,346.331600 274.949553,344.377212 258.256111,344.177651"/>
    <poly id="205124173" type="amenity.post_office" color="237,199,199" fill="1" layer="-1.00" shape="128.306175,344.443684 213.555692,345.249618 214.144099,284.143572 128.885473,283.326583 128.306175,344.443684"/>
    <poly id="205124173#1" type="building.public" color="255,230,230" fill="1" layer="-1.00" shape="128.306175,344.443684 213.555692,345.249618 214.144099,284.143572 128.885473,283.326583 128.306175,344.443684"/>
    <poly id="205124174" type="building.apartments" color="255,230,230" fill="1" layer="-1.00" shape="306.102404,313.892211 306.239330,303.143169 307.467110,303.134171 307.625272,294.150405 317.661734,282.551587 336.090203,282.882925 336.036604,284.626543 352.611681,284.505158 352.584237,295.486567 348.245522,295.518337 348.101050,306.378466 337.959251,316.057133 322.768751,316.046273 322.787699,314.103048 306.102404,313.892211"/>
    <poly id="205124175" type="building.apartments" color="255,230,230" fill="1" layer="-1.00" shape="253.837940,281.354013 356.577830,282.310966 355.973466,347.070098 290.112841,346.342358 274.922404,346.331600 253.226214,346.113222 253.837940,281.354013"/>
    <poly id="210679075" type="building.office" color="255,230,230" fill="1" layer="-1.00" shape="269.426122,490.548892 246.942045,490.303009 246.970707,525.866832 297.560657,525.995456 297.566056,516.546465 300.004789,516.506382 299.956464,513.308972 291.726690,513.291578 291.770832,496.680643 269.370710,496.567314 269.426122,490.548892"/>
    <poly id="210679087" type="building.hotel" color="255,230,230" fill="1" layer="-1.00" shape="12.562024,314.683839 12.492310,319.858516 11.271846,319.734271 11.213800,345.627720 31.781132,345.764850 31.864207,331.141122 39.787334,331.171580 39.814822,345.039466 50.517915,345.171596 50.606589,331.302855 58.836659,331.331075 58.750177,345.499590 69.261403,345.488818 69.347907,331.320303 78.034163,331.334083 78.095103,315.944388 16.386848,315.843710 16.370698,314.777907 12.562024,314.683839"/>
    <poly id="210679087#1" type="tourism.hotel" color="207,245,201" fill="1" layer="-2.00" shape="12.562024,314.683839 12.492310,319.858516 11.271846,319.734271 11.213800,345.627720 31.781132,345.764850 31.864207,331.141122 39.787334,331.171580 39.814822,345.039466 50.517915,345.171596 50.606589,331.302855 58.836659,331.331075 58.750177,345.499590 69.261403,345.488818 69.347907,331.320303 78.034163,331.334083 78.095103,315.944388 16.386848,315.843710 16.370698,314.777907 12.562024,314.683839"/>
    <poly id="210679089" type="amenity.fuel" color="237,199,199" fill="1" layer="-1.00" shape="13.723620,467.790543 13.676853,474.952552 55.127064,475.368894 55.173873,468.206885 13.723620,467.790543"/>
    <poly id="210679089#1" type="building.roof" color="255,230,230" fill="1" layer="-1.00" shape="13.723620,467.790543 13.676853,474.952552 55.127064,475.368894 55.173873,468.206885 13.723620,467.790543"/>
    <poly id="210679155" type="amenity.bar" color="237,199,199" fill="1" layer="-1.00" shape="84.884237,301.671025 81.077847,301.887797 81.204768,310.114447 103.148076,310.075107 103.158860,301.392207 84.884237,301.671025"/>
    <poly id="210679155#1" type="building.yes" color="255,230,230" fill="1" layer="-1.00" shape="84.884237,301.671025 81.077847,301.887797 81.204768,310.114447 103.148076,310.075107 103.158860,301.392207 84.884237,301.671025"/>
    <poly id="210679155#2" type="leisure.music_venue" color="207,245,201" fill="1" layer="-2.00" shape="84.884237,301.671025 81.077847,301.887797 81.204768,310.114447 103.148076,310.075107 103.158860,301.392207 84.884237,301.671025"/>
    <poly id="210679156" type="building.yes" color="255,230,230" fill="1" layer="-1.00" shape="408.696008,349.360173 409.149918,319.544375 409.714612,282.188598 381.197110,281.753243 380.187152,348.935866 408.696008,349.360173"/>
    <poly id="210679156#1" type="tourism.hotel" color="207,245,201" fill="1" layer="-2.00" shape="408.696008,349.360173 409.149918,319.544375 409.714612,282.188598 381.197110,281.753243 380.187152,348.935866 408.696008,349.360173"/>
    <poly id="210679238" type="building.yes" color="255,230,230" fill="1" layer="-1.00" shape="72.523593,300.651672 72.468914,306.747815 78.258982,306.649677 78.190173,292.793200 78.451522,279.833666 74.793301,279.893904 74.809443,280.959706 72.677493,280.986504 72.523593,300.651672"/>
    <poly id="210679248" type="building.yes" color="255,230,230" fill="1" layer="-1.00" shape="65.823790,290.996667 66.736331,290.989948 67.040384,300.736453 71.304189,300.671753 72.523593,300.651672 72.677493,280.986504 70.544481,280.868966 69.603086,279.210394 66.102486,279.269476 65.823790,290.996667"/>
    <poly id="210679265" type="building.yes" color="255,230,230" fill="1" layer="-1.00" shape="59.898790,302.065921 59.845185,308.306399 65.784658,308.218254 65.823790,290.996667 66.102486,279.269476 59.390413,279.218966 59.898790,302.065921"/>
    <poly id="210679287" type="building.yes" color="255,230,230" fill="1" layer="-1.00" shape="53.946042,291.339503 54.709177,291.322780 54.722527,302.148450 59.143871,302.071479 59.898790,302.065921 59.390413,279.218966 53.757862,279.304856 53.946042,291.339503"/>
    <poly id="210679598" type="building.yes" color="255,230,230" fill="1" layer="-1.00" shape="408.696008,349.360173 424.800753,349.608805 425.232588,321.303225 425.246435,319.793069 409.149918,319.544375 408.696008,349.360173"/>
    <poly id="210679598#1" type="tourism.hotel" color="207,245,201" fill="1" layer="-2.00" shape="408.696008,349.360173 424.800753,349.608805 425.232588,321.303225 425.246435,319.793069 409.149918,319.544375 408.696008,349.360173"/>
    <poly id="210679619" type="building.yes" color="255,230,230" fill="1" layer="-1.00" shape="308.303558,481.792003 308.316530,492.617673 320.272430,492.796541 320.304385,489.232132 320.310469,481.004506 320.314274,472.466003 320.352887,463.016770 315.931644,463.093580 315.802903,464.771129 313.064371,464.657957 312.593144,463.750935 311.666797,463.002696 310.596743,463.021641 308.492668,464.580427 308.529358,467.322685 308.570925,469.598567 308.534334,471.397577 308.303558,481.792003"/>
    <poly id="210679630" type="building.yes" color="255,230,230" fill="1" layer="-1.00" shape="418.450407,501.104870 418.044066,523.814186 425.055677,524.018287 425.257697,517.610178 425.871569,517.605689 426.619727,516.678641 426.592013,515.157685 425.505795,514.099707 425.619656,501.307819 418.450407,501.104870"/>
    <poly id="210679637" type="building.yes" color="255,230,230" fill="1" layer="-1.00" shape="302.022972,481.727002 308.303558,481.792003 308.534334,471.397577 308.570925,469.598567 308.529358,467.322685 308.492668,464.580427 308.317805,463.360340 302.145127,463.305651 302.022972,481.727002"/>
    <poly id="210679641" type="building.yes" color="255,230,230" fill="1" layer="-1.00" shape="435.893643,496.114056 428.129461,496.237444 428.364142,511.314072 436.285923,511.189532 435.893643,496.114056"/>
    <poly id="210679647" type="building.apartments" color="255,230,230" fill="1" layer="-1.00" shape="289.744231,490.699692 301.956648,490.787821 302.022972,481.727002 302.145127,463.305651 302.158051,461.673364 300.067308,461.655378 299.129327,460.451989 297.452633,460.331039 296.399176,461.482406 295.171498,460.369968 293.486427,460.237977 292.749913,461.620191 289.953961,461.596276 289.831911,478.896189 289.744231,490.699692"/>
    <poly id="210680059" type="building.yes" color="255,230,230" fill="1" layer="-1.00" shape="103.158860,301.392207 103.195140,293.919385 85.229731,294.506820 84.922786,294.509079 84.884237,301.671025 103.158860,301.392207"/>
    <poly id="210680080" type="building.yes" color="255,230,230" fill="1" layer="-1.00" shape="185.853371,514.479373 185.845837,523.617487 186.610088,523.756216 186.628497,525.132897 189.831479,525.231505 190.110650,523.708295 197.578445,523.897718 197.593428,524.808083 201.252665,524.903345 201.718322,505.846573 189.521213,505.580850 187.389412,505.618717 187.364609,513.535589 185.853371,514.479373"/>
    <poly id="210680131" type="building.yes" color="255,230,230" fill="1" layer="-1.00" shape="179.600750,523.863228 182.039562,523.834207 182.662325,525.039897 184.644799,525.003126 185.845837,523.617487 185.853371,514.479373 184.484684,514.500531 184.469618,513.579063 185.818836,512.036889 185.761022,508.684101 185.141603,507.933623 185.890873,507.161988 185.988473,503.508268 179.434230,503.456489 179.600750,523.863228"/>
    <poly id="210680145" type="building.commercial" color="255,230,230" fill="1" layer="-1.00" shape="395.544732,438.693965 395.499131,435.862945 396.354639,436.001029 396.532819,437.676331 399.178077,437.512634 399.146946,435.525363 400.149827,435.395889 400.035616,437.928288 418.752562,438.057862 419.029851,428.329304 400.037092,427.924162 400.053673,429.056582 395.971312,428.964313 395.975037,421.536147 396.978733,421.517700 396.912570,417.010226 398.155704,416.834581 398.281378,414.735129 397.700681,414.739378 397.720766,406.145241 396.046255,406.324043 396.130450,404.224894 397.839201,404.190186 397.716219,396.452054 398.693975,396.289454 398.648537,393.480640 395.969186,393.522449 396.489400,381.849028 400.845303,381.905987 401.022589,383.459158 418.451893,383.331674 418.604831,373.615129 402.690535,373.309603 402.461319,375.998289 401.183858,376.018738 401.283521,372.631489 378.633332,372.408606 377.831479,438.546002 395.544732,438.693965"/>
    <poly id="210680171" type="building.hotel" color="255,230,230" fill="1" layer="-1.00" shape="443.863104,495.700489 437.507954,495.647017 437.381101,511.203732 442.873336,511.241305 442.898923,507.932321 454.821040,508.033938 454.802139,509.988264 467.222068,510.097367 467.280426,503.323900 467.335457,496.095220 454.907289,495.997281 454.880479,499.139723 443.837841,499.053884 443.863104,495.700489"/>
    <poly id="210680171#1" type="tourism.hotel" color="207,245,201" fill="1" layer="-2.00" shape="443.863104,495.700489 437.507954,495.647017 437.381101,511.203732 442.873336,511.241305 442.898923,507.932321 454.821040,508.033938 454.802139,509.988264 467.222068,510.097367 467.280426,503.323900 467.335457,496.095220 454.907289,495.997281 454.880479,499.139723 443.837841,499.053884 443.863104,495.700489"/>
    <poly id="210680172" type="building.yes" color="255,230,230" fill="1" layer="-1.00" shape="206.021810,498.775445 206.126841,505.170205 213.435897,505.205363 219.989078,505.112838 219.960179,503.436444 221.620744,502.491572 221.587363,500.204526 220.348532,498.703565 206.021810,498.775445"/>
    <poly id="210680174" type="building.yes" color="255,230,230" fill="1" layer="-1.00" shape="67.697666,509.452458 67.640112,525.297370 101.463547,525.381517 101.520114,509.392270 100.753572,508.942673 67.697666,509.452458"/>
    <poly id="210680434" type="amenity.bar" color="237,199,199" fill="1" layer="-1.00" shape="103.195140,293.919385 103.132389,279.751971 78.451522,279.833666 78.190173,292.793200 78.953308,292.776480 83.832071,292.851604 83.848212,293.917407 84.918292,293.898428 84.922786,294.509079 85.229731,294.506820 103.195140,293.919385"/>
    <poly id="210680434#1" type="building.yes" color="255,230,230" fill="1" layer="-1.00" shape="103.195140,293.919385 103.132389,279.751971 78.451522,279.833666 78.190173,292.793200 78.953308,292.776480 83.832071,292.851604 83.848212,293.917407 84.918292,293.898428 84.922786,294.509079 85.229731,294.506820 103.195140,293.919385"/>
    <poly id="210680454" type="building.retail" color="255,230,230" fill="1" layer="-1.00" shape="406.507217,389.248293 406.829758,422.000802 423.917871,421.742585 424.125777,438.829113 423.982057,439.596295 469.056961,439.899718 469.182736,374.222522 425.116816,373.545303 424.814797,388.970056 406.507217,389.248293"/>
    <poly id="210680483" type="building.yes" color="255,230,230" fill="1" layer="-1.00" shape="100.753572,508.942673 100.715932,497.062360 70.094215,496.921331 70.026753,502.406886 67.737336,502.445948 67.697666,509.452458 100.753572,508.942673"/>