<?xml version="1.0" encoding="UTF-8"?>

<!-- generated on 2022-07-12 20:00:22 by Eclipse SUMO netconvert Version 1.13.0
<configuration xmlns:xsi="http://www.w3.org/2001/XMLSchema-instance" xsi:noNamespaceSchemaLocation="http://sumo.dlr.de/xsd/netconvertConfiguration.xsd">

    <input>
        <type-files value="C:\Program%20Files%20(x86)\Eclipse\Sumo\data\typemap\osmNetconvert.typ.xml"/>
        <osm-files value="osm_bbox.osm.xml.gz"/>
    </input>

    <output>
        <output-file value="osm.net.xml"/>
        <output.street-names value="true"/>
        <output.original-names value="true"/>
    </output>

    <projection>
        <proj.utm value="true"/>
    </projection>

    <processing>
        <geometry.remove value="true"/>
        <roundabouts.guess value="true"/>
    </processing>

    <tls_building>
        <tls.discard-simple value="true"/>
        <tls.join value="true"/>
        <tls.guess-signals value="true"/>
        <tls.default-type value="actuated"/>
    </tls_building>

    <ramp_guessing>
        <ramps.guess value="true"/>
    </ramp_guessing>

    <edge_removal>
        <keep-edges.by-vclass value="passenger"/>
    </edge_removal>

    <junctions>
        <junctions.join value="true"/>
        <junctions.corner-detail value="5"/>
    </junctions>

    <report>
        <verbose value="true"/>
        <aggregate-warnings value="5"/>
    </report>

</configuration>
-->

<net version="1.9" junctionCornerDetail="5" limitTurnSpeed="5.50" xmlns:xsi="http://www.w3.org/2001/XMLSchema-instance" xsi:noNamespaceSchemaLocation="http://sumo.dlr.de/xsd/net_file.xsd">

    <location netOffset="-447527.39,-4637667.58" convBoundary="0.00,0.00,683.63,824.71" origBoundary="-87.632534,41.889207,-87.624295,41.896634" projParameter="+proj=utm +zone=16 +ellps=WGS84 +datum=WGS84 +units=m +no_defs"/>

    <type id="highway.bridleway" priority="1" numLanes="1" speed="2.78" allow="pedestrian" oneway="1" width="2.00"/>
    <type id="highway.bus_guideway" priority="1" numLanes="1" speed="27.78" allow="bus" oneway="1"/>
    <type id="highway.cycleway" priority="1" numLanes="1" speed="8.33" allow="bicycle" oneway="0" width="1.00"/>
    <type id="highway.footway" priority="1" numLanes="1" speed="2.78" allow="pedestrian" oneway="1" width="2.00"/>
    <type id="highway.ford" priority="1" numLanes="1" speed="2.78" allow="army" oneway="0"/>
    <type id="highway.living_street" priority="2" numLanes="1" speed="2.78" disallow="tram rail_urban rail rail_electric rail_fast ship" oneway="0"/>
    <type id="highway.motorway" priority="14" numLanes="2" speed="39.44" allow="private emergency authority army vip passenger hov taxi bus coach delivery truck trailer motorcycle evehicle custom1 custom2" oneway="1"/>
    <type id="highway.motorway_link" priority="9" numLanes="1" speed="22.22" allow="private emergency authority army vip passenger hov taxi bus coach delivery truck trailer motorcycle evehicle custom1 custom2" oneway="1"/>
    <type id="highway.path" priority="1" numLanes="1" speed="2.78" allow="pedestrian bicycle" oneway="0" width="2.00"/>
    <type id="highway.pedestrian" priority="1" numLanes="1" speed="2.78" allow="pedestrian" oneway="1" width="2.00"/>
    <type id="highway.primary" priority="12" numLanes="2" speed="27.78" disallow="tram rail_urban rail rail_electric rail_fast ship" oneway="0"/>
    <type id="highway.primary_link" priority="7" numLanes="1" speed="22.22" disallow="tram rail_urban rail rail_electric rail_fast ship" oneway="0"/>
    <type id="highway.raceway" priority="15" numLanes="2" speed="83.33" allow="vip" oneway="0"/>
    <type id="highway.residential" priority="3" numLanes="1" speed="13.89" disallow="tram rail_urban rail rail_electric rail_fast ship" oneway="0"/>
    <type id="highway.secondary" priority="11" numLanes="1" speed="27.78" disallow="tram rail_urban rail rail_electric rail_fast ship" oneway="0"/>
    <type id="highway.secondary_link" priority="6" numLanes="1" speed="22.22" disallow="tram rail_urban rail rail_electric rail_fast ship" oneway="0"/>
    <type id="highway.service" priority="1" numLanes="1" speed="5.56" allow="pedestrian delivery bicycle" oneway="0"/>
    <type id="highway.stairs" priority="1" numLanes="1" speed="1.39" allow="pedestrian" oneway="1" width="2.00"/>
    <type id="highway.step" priority="1" numLanes="1" speed="1.39" allow="pedestrian" oneway="1" width="2.00"/>
    <type id="highway.steps" priority="1" numLanes="1" speed="1.39" allow="pedestrian" oneway="1" width="2.00"/>
    <type id="highway.tertiary" priority="10" numLanes="1" speed="22.22" disallow="tram rail_urban rail rail_electric rail_fast ship" oneway="0"/>
    <type id="highway.tertiary_link" priority="5" numLanes="1" speed="22.22" disallow="tram rail_urban rail rail_electric rail_fast ship" oneway="0"/>
    <type id="highway.track" priority="1" numLanes="1" speed="5.56" allow="pedestrian motorcycle moped bicycle" oneway="0"/>
    <type id="highway.trunk" priority="13" numLanes="2" speed="27.78" disallow="pedestrian bicycle tram rail_urban rail rail_electric rail_fast ship" oneway="0"/>
    <type id="highway.trunk_link" priority="8" numLanes="1" speed="22.22" disallow="pedestrian bicycle tram rail_urban rail rail_electric rail_fast ship" oneway="0"/>
    <type id="highway.unclassified" priority="4" numLanes="1" speed="13.89" disallow="tram rail_urban rail rail_electric rail_fast ship" oneway="0"/>
    <type id="highway.unsurfaced" priority="1" numLanes="1" speed="8.33" disallow="tram rail_urban rail rail_electric rail_fast ship" oneway="0"/>
    <type id="railway.highspeed" priority="21" numLanes="1" speed="69.44" allow="rail_fast" oneway="1"/>
    <type id="railway.light_rail" priority="19" numLanes="1" speed="27.78" allow="rail_urban" oneway="1"/>
    <type id="railway.preserved" priority="16" numLanes="1" speed="27.78" allow="rail" oneway="1"/>
    <type id="railway.rail" priority="20" numLanes="1" speed="44.44" allow="rail" oneway="1"/>
    <type id="railway.subway" priority="18" numLanes="1" speed="27.78" allow="rail_urban" oneway="1"/>
    <type id="railway.tram" priority="17" numLanes="1" speed="13.89" allow="tram" oneway="1"/>

    <edge id=":J08_0" function="internal">
        <lane id=":J08_0_0" index="0" disallow="tram rail_urban rail rail_electric rail_fast ship" speed="7.32" length="11.70" shape="379.31,276.26 375.48,276.56 372.72,277.58 371.06,279.31 370.48,281.75"/>
    </edge>
    <edge id=":J08_1" function="internal">
        <lane id=":J08_1_0" index="0" disallow="tram rail_urban rail rail_electric rail_fast ship" speed="27.78" length="17.68" shape="379.31,276.26 374.09,275.94 370.54,275.35 366.99,274.77 361.76,274.47"/>
        <lane id=":J08_1_1" index="1" disallow="tram rail_urban rail rail_electric rail_fast ship" speed="27.78" length="17.68" shape="379.35,273.06 374.13,272.74 370.57,272.15 367.02,271.57 361.79,271.27"/>
        <lane id=":J08_1_2" index="2" disallow="tram rail_urban rail rail_electric rail_fast ship" speed="27.78" length="17.68" shape="379.39,269.86 374.16,269.54 370.61,268.95 367.05,268.37 361.82,268.07"/>
    </edge>
    <edge id=":J08_4" function="internal">
        <lane id=":J08_4_0" index="0" disallow="tram rail_urban rail rail_electric rail_fast ship" speed="8.11" length="14.55" shape="379.43,266.66 374.19,266.25 370.45,265.16 368.21,263.40 367.47,260.96"/>
    </edge>
    <edge id=":J08_5" function="internal">
        <lane id=":J08_5_0" index="0" disallow="tram rail_urban rail rail_electric rail_fast ship" speed="27.78" length="21.07" shape="373.87,261.00 373.33,267.76 372.18,273.25 371.03,277.81 370.48,281.75"/>
    </edge>
    <edge id=":J08_6" function="internal">
        <lane id=":J08_6_0" index="0" disallow="tram rail_urban rail rail_electric rail_fast ship" speed="7.65" length="3.33" shape="370.67,260.98 370.10,264.11 370.02,264.23"/>
    </edge>
    <edge id=":J08_7" function="internal">
        <lane id=":J08_7_0" index="0" disallow="tram rail_urban rail rail_electric rail_fast ship" speed="3.65" length="1.44" shape="370.67,260.98 369.86,262.18"/>
    </edge>
    <edge id=":J08_11" function="internal">
        <lane id=":J08_11_0" index="0" disallow="tram rail_urban rail rail_electric rail_fast ship" speed="7.65" length="9.57" shape="370.02,264.23 368.44,266.34 365.68,267.66 361.82,268.07"/>
    </edge>
    <edge id=":J08_12" function="internal">
        <lane id=":J08_12_0" index="0" disallow="tram rail_urban rail rail_electric rail_fast ship" speed="3.65" length="3.23" shape="369.86,262.18 369.06,262.57 368.26,262.17 367.47,260.96"/>
    </edge>
    <edge id=":J08_8" function="internal">
        <lane id=":J08_8_0" index="0" disallow="tram rail_urban rail rail_electric rail_fast ship" speed="6.91" length="10.34" shape="367.28,281.71 366.97,278.56 365.95,276.30 364.21,274.94 361.76,274.47"/>
    </edge>
    <edge id=":J08_9" function="internal">
        <lane id=":J08_9_0" index="0" disallow="tram rail_urban rail rail_electric rail_fast ship" speed="27.78" length="20.75" shape="367.28,281.71 367.47,260.96"/>
    </edge>
    <edge id=":J08_10" function="internal">
        <lane id=":J08_10_0" index="0" disallow="tram rail_urban rail rail_electric rail_fast ship" speed="3.65" length="1.44" shape="367.28,281.71 368.09,280.52"/>
    </edge>
    <edge id=":J08_13" function="internal">
        <lane id=":J08_13_0" index="0" disallow="tram rail_urban rail rail_electric rail_fast ship" speed="3.65" length="3.23" shape="368.09,280.52 368.90,280.13 369.69,280.54 370.48,281.75"/>
    </edge>
    <edge id=":J05_0" function="internal">
        <lane id=":J05_0_0" index="0" disallow="tram rail_urban rail rail_electric rail_fast ship" speed="6.51" length="9.04" shape="369.52,352.43 369.84,354.88 370.87,356.65 372.60,357.72 375.05,358.11"/>
    </edge>
    <edge id=":J05_1" function="internal">
        <lane id=":J05_1_0" index="0" disallow="tram rail_urban rail rail_electric rail_fast ship" speed="27.78" length="17.59" shape="369.52,352.43 369.29,370.02"/>
    </edge>
    <edge id=":J05_2" function="internal">
        <lane id=":J05_2_0" index="0" disallow="tram rail_urban rail rail_electric rail_fast ship" speed="3.65" length="1.44" shape="369.52,352.43 368.71,353.62"/>
    </edge>
    <edge id=":J05_11" function="internal">
        <lane id=":J05_11_0" index="0" disallow="tram rail_urban rail rail_electric rail_fast ship" speed="3.65" length="3.23" shape="368.71,353.62 367.90,354.01 367.11,353.60 366.32,352.39"/>
    </edge>
    <edge id=":J05_3" function="internal">
        <lane id=":J05_3_0" index="0" disallow="tram rail_urban rail rail_electric rail_fast ship" speed="7.33" length="11.73" shape="357.45,357.87 361.30,357.57 364.07,356.56 365.74,354.83 366.32,352.39"/>
    </edge>
    <edge id=":J05_4" function="internal">
        <lane id=":J05_4_0" index="0" disallow="tram rail_urban rail rail_electric rail_fast ship" speed="27.78" length="17.60" shape="357.45,357.87 375.05,358.11"/>
        <lane id=":J05_4_1" index="1" disallow="tram rail_urban rail rail_electric rail_fast ship" speed="27.78" length="17.60" shape="357.41,361.07 375.01,361.31"/>
        <lane id=":J05_4_2" index="2" disallow="tram rail_urban rail rail_electric rail_fast ship" speed="27.78" length="17.60" shape="357.37,364.27 374.96,364.51"/>
    </edge>
    <edge id=":J05_7" function="internal">
        <lane id=":J05_7_0" index="0" disallow="tram rail_urban rail rail_electric rail_fast ship" speed="8.10" length="14.57" shape="357.37,364.27 362.61,364.69 366.34,365.78 368.57,367.56 369.29,370.02"/>
    </edge>
    <edge id=":J05_8" function="internal">
        <lane id=":J05_8_0" index="0" disallow="tram rail_urban rail rail_electric rail_fast ship" speed="27.78" length="17.95" shape="362.89,369.94 363.47,364.13 364.62,359.69 365.77,355.98 366.32,352.39"/>
    </edge>
    <edge id=":J05_9" function="internal">
        <lane id=":J05_9_0" index="0" disallow="tram rail_urban rail rail_electric rail_fast ship" speed="7.32" length="2.51" shape="366.09,369.98 366.67,367.54"/>
    </edge>
    <edge id=":J05_10" function="internal">
        <lane id=":J05_10_0" index="0" disallow="tram rail_urban rail rail_electric rail_fast ship" speed="3.65" length="1.44" shape="366.09,369.98 366.90,368.79"/>
    </edge>
    <edge id=":J05_12" function="internal">
        <lane id=":J05_12_0" index="0" disallow="tram rail_urban rail rail_electric rail_fast ship" speed="7.32" length="9.21" shape="366.67,367.54 368.34,365.81 371.11,364.80 374.96,364.51"/>
    </edge>
    <edge id=":J05_13" function="internal">
        <lane id=":J05_13_0" index="0" disallow="tram rail_urban rail rail_electric rail_fast ship" speed="3.65" length="3.23" shape="366.90,368.79 367.71,368.40 368.50,368.81 369.29,370.02"/>
    </edge>
    <edge id=":J04_0" function="internal">
        <lane id=":J04_0_0" index="0" disallow="tram rail_urban rail rail_electric rail_fast ship" speed="6.90" length="10.32" shape="241.18,351.28 241.60,353.73 242.92,355.50 245.14,356.57 248.27,356.95"/>
    </edge>
    <edge id=":J04_1" function="internal">
        <lane id=":J04_1_0" index="0" disallow="tram rail_urban rail rail_electric rail_fast ship" speed="27.78" length="17.75" shape="241.18,351.28 241.36,356.53 241.87,360.12 242.37,363.70 242.54,368.95"/>
        <lane id=":J04_1_1" index="1" disallow="tram rail_urban rail rail_electric rail_fast ship" speed="27.78" length="17.75" shape="237.98,351.24 238.16,356.49 238.67,360.07 239.17,363.66 239.34,368.91"/>
        <lane id=":J04_1_2" index="2" disallow="tram rail_urban rail rail_electric rail_fast ship" speed="27.78" length="17.75" shape="234.78,351.20 234.96,356.45 235.47,360.03 235.97,363.61 236.14,368.86"/>
    </edge>
    <edge id=":J04_4" function="internal">
        <lane id=":J04_4_0" index="0" disallow="tram rail_urban rail rail_electric rail_fast ship" speed="27.78" length="20.80" shape="227.47,356.76 248.27,356.95"/>
        <lane id=":J04_4_1" index="1" disallow="tram rail_urban rail rail_electric rail_fast ship" speed="27.78" length="20.80" shape="227.44,359.96 248.24,360.15"/>
        <lane id=":J04_4_2" index="2" disallow="tram rail_urban rail rail_electric rail_fast ship" speed="27.78" length="20.80" shape="227.42,363.16 248.21,363.35"/>
    </edge>
    <edge id=":J04_7" function="internal">
        <lane id=":J04_7_0" index="0" disallow="tram rail_urban rail rail_electric rail_fast ship" speed="7.32" length="11.73" shape="227.42,363.16 231.26,363.55 234.00,364.63 235.63,366.40 236.14,368.86"/>
        <lane id=":J04_7_1" index="1" disallow="tram rail_urban rail rail_electric rail_fast ship" speed="6.50" length="9.03" shape="227.42,363.16 229.86,363.53 231.60,364.60 232.63,366.36 232.94,368.82"/>
    </edge>
    <edge id=":J03_0" function="internal">
        <lane id=":J03_0_0" index="0" disallow="tram rail_urban rail rail_electric rail_fast ship" speed="27.78" length="17.71" shape="111.45,367.87 111.41,350.14"/>
        <lane id=":J03_0_1" index="1" disallow="tram rail_urban rail rail_electric rail_fast ship" speed="27.78" length="17.71" shape="114.65,367.85 114.61,350.14"/>
        <lane id=":J03_0_2" index="2" disallow="tram rail_urban rail rail_electric rail_fast ship" speed="27.78" length="17.71" shape="117.85,367.83 117.81,350.14"/>
    </edge>
    <edge id=":J03_3" function="internal">
        <lane id=":J03_3_0" index="0" disallow="tram rail_urban rail rail_electric rail_fast ship" speed="7.30" length="11.75" shape="117.85,367.83 118.18,363.97 119.23,361.22 120.99,359.58 123.47,359.05"/>
        <lane id=":J03_3_1" index="1" disallow="tram rail_urban rail rail_electric rail_fast ship" speed="6.47" length="9.03" shape="117.85,367.83 118.19,365.37 119.23,363.62 120.98,362.58 123.44,362.25"/>
    </edge>
    <edge id=":J03_5" function="internal">
        <lane id=":J03_5_0" index="0" disallow="tram rail_urban rail rail_electric rail_fast ship" speed="6.49" length="9.03" shape="105.79,355.70 108.24,355.37 110.00,354.33 111.05,352.59 111.41,350.14"/>
    </edge>
    <edge id=":J03_6" function="internal">
        <lane id=":J03_6_0" index="0" disallow="tram rail_urban rail rail_electric rail_fast ship" speed="27.78" length="17.71" shape="105.79,355.70 123.50,355.85"/>
        <lane id=":J03_6_1" index="1" disallow="tram rail_urban rail rail_electric rail_fast ship" speed="27.78" length="17.71" shape="105.76,358.90 123.47,359.05"/>
        <lane id=":J03_6_2" index="2" disallow="tram rail_urban rail rail_electric rail_fast ship" speed="27.78" length="17.71" shape="105.73,362.10 123.44,362.25"/>
    </edge>
    <edge id=":J02_0" function="internal">
        <lane id=":J02_0_0" index="0" disallow="tram rail_urban rail rail_electric rail_fast ship" speed="7.36" length="11.78" shape="377.00,453.65 373.13,453.97 370.36,455.00 368.67,456.74 368.09,459.19"/>
    </edge>
    <edge id=":J02_1" function="internal">
        <lane id=":J02_1_0" index="0" disallow="tram rail_urban rail rail_electric rail_fast ship" speed="27.78" length="17.62" shape="377.00,453.65 359.36,453.48"/>
        <lane id=":J02_1_1" index="1" disallow="tram rail_urban rail rail_electric rail_fast ship" speed="27.78" length="17.62" shape="377.03,450.45 359.41,450.28"/>
        <lane id=":J02_1_2" index="2" disallow="tram rail_urban rail rail_electric rail_fast ship" speed="27.78" length="17.62" shape="377.06,447.25 359.45,447.08"/>
    </edge>
    <edge id=":J02_4" function="internal">
        <lane id=":J02_4_0" index="0" disallow="tram rail_urban rail rail_electric rail_fast ship" speed="8.09" length="14.59" shape="377.06,447.25 371.81,446.86 368.07,445.77 365.84,443.99 365.12,441.52"/>
    </edge>
    <edge id=":J02_5" function="internal">
        <lane id=":J02_5_0" index="0" disallow="tram rail_urban rail rail_electric rail_fast ship" speed="27.78" length="17.98" shape="371.52,441.60 370.94,447.43 369.79,451.88 368.64,455.59 368.09,459.19"/>
    </edge>
    <edge id=":J02_6" function="internal">
        <lane id=":J02_6_0" index="0" disallow="tram rail_urban rail rail_electric rail_fast ship" speed="7.33" length="2.52" shape="368.32,441.56 367.74,444.02"/>
    </edge>
    <edge id=":J02_7" function="internal">
        <lane id=":J02_7_0" index="0" disallow="tram rail_urban rail rail_electric rail_fast ship" speed="3.65" length="1.44" shape="368.32,441.56 367.51,442.75"/>
    </edge>
    <edge id=":J02_11" function="internal">
        <lane id=":J02_11_0" index="0" disallow="tram rail_urban rail rail_electric rail_fast ship" speed="7.33" length="9.22" shape="367.74,444.02 366.07,445.76 363.30,446.78 359.45,447.08"/>
    </edge>
    <edge id=":J02_12" function="internal">
        <lane id=":J02_12_0" index="0" disallow="tram rail_urban rail rail_electric rail_fast ship" speed="3.65" length="3.23" shape="367.51,442.75 366.70,443.14 365.91,442.73 365.12,441.52"/>
    </edge>
    <edge id=":J02_8" function="internal">
        <lane id=":J02_8_0" index="0" disallow="tram rail_urban rail rail_electric rail_fast ship" speed="6.51" length="9.03" shape="364.89,459.15 364.57,456.69 363.55,454.93 361.81,453.86 359.36,453.48"/>
    </edge>
    <edge id=":J02_9" function="internal">
        <lane id=":J02_9_0" index="0" disallow="tram rail_urban rail rail_electric rail_fast ship" speed="27.78" length="17.63" shape="364.89,459.15 365.12,441.52"/>
    </edge>
    <edge id=":J02_10" function="internal">
        <lane id=":J02_10_0" index="0" disallow="tram rail_urban rail rail_electric rail_fast ship" speed="3.65" length="1.44" shape="364.89,459.15 365.71,457.96"/>
    </edge>
    <edge id=":J02_13" function="internal">
        <lane id=":J02_13_0" index="0" disallow="tram rail_urban rail rail_electric rail_fast ship" speed="3.65" length="3.23" shape="365.71,457.96 366.51,457.57 367.31,457.98 368.09,459.19"/>
    </edge>
    <edge id=":J01_0" function="internal">
        <lane id=":J01_0_0" index="0" disallow="tram rail_urban rail rail_electric rail_fast ship" speed="7.31" length="11.63" shape="247.06,452.01 243.91,452.42 241.64,453.75 240.26,455.99 239.75,459.14"/>
    </edge>
    <edge id=":J01_1" function="internal">
        <lane id=":J01_1_0" index="0" disallow="tram rail_urban rail rail_electric rail_fast ship" speed="27.78" length="20.83" shape="247.06,452.01 226.28,453.35"/>
        <lane id=":J01_1_1" index="1" disallow="tram rail_urban rail rail_electric rail_fast ship" speed="27.78" length="20.83" shape="247.10,448.81 226.32,450.15"/>
        <lane id=":J01_1_2" index="2" disallow="tram rail_urban rail rail_electric rail_fast ship" speed="27.78" length="20.83" shape="247.14,445.61 226.36,446.95"/>
    </edge>
    <edge id=":J01_4" function="internal">
        <lane id=":J01_4_0" index="0" disallow="tram rail_urban rail rail_electric rail_fast ship" speed="27.78" length="20.87" shape="241.64,438.34 239.75,459.14"/>
        <lane id=":J01_4_1" index="1" disallow="tram rail_urban rail rail_electric rail_fast ship" speed="27.78" length="20.87" shape="238.44,438.30 236.55,459.08"/>
        <lane id=":J01_4_2" index="2" disallow="tram rail_urban rail rail_electric rail_fast ship" speed="27.78" length="20.87" shape="235.24,438.27 233.35,459.03"/>
    </edge>
    <edge id=":J01_7" function="internal">
        <lane id=":J01_7_0" index="0" disallow="tram rail_urban rail rail_electric rail_fast ship" speed="7.31" length="11.70" shape="232.04,438.23 231.65,442.07 230.58,444.81 228.81,446.43 226.36,446.95"/>
        <lane id=":J01_7_1" index="1" disallow="tram rail_urban rail rail_electric rail_fast ship" speed="6.49" length="9.00" shape="232.04,438.23 231.67,440.67 230.60,442.41 228.85,443.43 226.40,443.75"/>
    </edge>
    <edge id=":J07_0" function="internal">
        <lane id=":J07_0_0" index="0" disallow="tram rail_urban rail rail_electric rail_fast ship" speed="6.50" length="9.03" shape="247.77,274.72 245.31,275.03 243.55,276.06 242.47,277.79 242.09,280.24"/>
    </edge>
    <edge id=":J07_1" function="internal">
        <lane id=":J07_1_0" index="0" disallow="tram rail_urban rail rail_electric rail_fast ship" speed="27.78" length="17.73" shape="247.81,271.52 242.56,271.69 238.98,272.19 235.40,272.68 230.16,272.84"/>
        <lane id=":J07_1_1" index="1" disallow="tram rail_urban rail rail_electric rail_fast ship" speed="27.78" length="17.73" shape="247.86,268.32 242.61,268.49 239.03,268.99 235.45,269.48 230.21,269.65"/>
        <lane id=":J07_1_2" index="2" disallow="tram rail_urban rail rail_electric rail_fast ship" speed="27.78" length="17.73" shape="247.91,265.12 242.66,265.29 239.08,265.79 235.51,266.28 230.26,266.45"/>
    </edge>
    <edge id=":J07_4" function="internal">
        <lane id=":J07_4_0" index="0" disallow="tram rail_urban rail rail_electric rail_fast ship" speed="27.78" length="20.80" shape="242.36,259.44 242.09,280.24"/>
        <lane id=":J07_4_1" index="1" disallow="tram rail_urban rail rail_electric rail_fast ship" speed="27.78" length="20.80" shape="239.16,259.40 238.89,280.20"/>
        <lane id=":J07_4_2" index="2" disallow="tram rail_urban rail rail_electric rail_fast ship" speed="27.78" length="20.80" shape="235.96,259.36 235.69,280.16"/>
    </edge>
    <edge id=":J07_7" function="internal">
        <lane id=":J07_7_0" index="0" disallow="tram rail_urban rail rail_electric rail_fast ship" speed="7.70" length="13.11" shape="235.96,259.36 235.55,263.89 234.45,267.12 232.67,269.04 230.21,269.65"/>
        <lane id=":J07_7_1" index="1" disallow="tram rail_urban rail rail_electric rail_fast ship" speed="6.91" length="10.33" shape="235.96,259.36 235.56,262.49 234.49,264.72 232.72,266.04 230.26,266.45"/>
    </edge>
    <edge id=":J00_0" function="internal">
        <lane id=":J00_0_0" index="0" disallow="tram rail_urban rail rail_electric rail_fast ship" speed="27.78" length="17.71" shape="122.52,452.00 117.28,451.67 113.72,451.08 110.17,450.48 104.93,450.17"/>
        <lane id=":J00_0_1" index="1" disallow="tram rail_urban rail rail_electric rail_fast ship" speed="27.78" length="17.71" shape="122.56,448.80 117.32,448.47 113.77,447.88 110.21,447.28 104.97,446.97"/>
        <lane id=":J00_0_2" index="2" disallow="tram rail_urban rail rail_electric rail_fast ship" speed="27.78" length="17.71" shape="122.60,445.60 117.37,445.27 113.81,444.68 110.25,444.08 105.01,443.77"/>
    </edge>
    <edge id=":J00_3" function="internal">
        <lane id=":J00_3_0" index="0" disallow="tram rail_urban rail rail_electric rail_fast ship" speed="7.34" length="11.74" shape="122.65,442.40 118.79,441.99 116.04,440.91 114.41,439.14 113.88,436.70"/>
        <lane id=":J00_3_1" index="1" disallow="tram rail_urban rail rail_electric rail_fast ship" speed="6.52" length="9.05" shape="122.65,442.40 120.19,442.01 118.44,440.94 117.41,439.18 117.08,436.73"/>
    </edge>
    <edge id=":J00_5" function="internal">
        <lane id=":J00_5_0" index="0" disallow="tram rail_urban rail rail_electric rail_fast ship" speed="6.93" length="10.37" shape="110.46,457.45 110.14,454.29 109.12,452.02 107.38,450.65 104.93,450.17"/>
    </edge>
    <edge id=":J00_6" function="internal">
        <lane id=":J00_6_0" index="0" disallow="tram rail_urban rail rail_electric rail_fast ship" speed="27.78" length="20.79" shape="110.46,457.45 110.68,436.66"/>
        <lane id=":J00_6_1" index="1" disallow="tram rail_urban rail rail_electric rail_fast ship" speed="27.78" length="20.79" shape="113.66,457.48 113.88,436.70"/>
        <lane id=":J00_6_2" index="2" disallow="tram rail_urban rail rail_electric rail_fast ship" speed="27.78" length="20.79" shape="116.86,457.52 117.08,436.73"/>
    </edge>
    <edge id=":J06_0" function="internal">
        <lane id=":J06_0_0" index="0" disallow="tram rail_urban rail rail_electric rail_fast ship" speed="27.78" length="17.68" shape="124.20,273.00 118.97,272.70 115.41,272.12 111.85,271.52 106.62,271.20"/>
        <lane id=":J06_0_1" index="1" disallow="tram rail_urban rail rail_electric rail_fast ship" speed="27.78" length="17.68" shape="124.23,269.80 119.00,269.50 115.44,268.92 111.89,268.32 106.66,268.00"/>
        <lane id=":J06_0_2" index="2" disallow="tram rail_urban rail rail_electric rail_fast ship" speed="27.78" length="17.68" shape="124.26,266.60 119.03,266.30 115.48,265.72 111.93,265.12 106.70,264.80"/>
    </edge>
    <edge id=":J06_3" function="internal">
        <lane id=":J06_3_0" index="0" disallow="tram rail_urban rail rail_electric rail_fast ship" speed="7.32" length="11.70" shape="124.29,263.40 120.44,263.02 117.71,261.95 116.08,260.19 115.55,257.74"/>
        <lane id=":J06_3_1" index="1" disallow="tram rail_urban rail rail_electric rail_fast ship" speed="6.50" length="9.00" shape="124.29,263.40 121.84,263.03 120.11,261.97 119.08,260.22 118.75,257.77"/>
    </edge>
    <edge id=":J06_5" function="internal">
        <lane id=":J06_5_0" index="0" disallow="tram rail_urban rail rail_electric rail_fast ship" speed="6.95" length="10.38" shape="112.18,278.48 111.85,275.33 110.81,273.06 109.07,271.69 106.62,271.20"/>
    </edge>
    <edge id=":J06_6" function="internal">
        <lane id=":J06_6_0" index="0" disallow="tram rail_urban rail rail_electric rail_fast ship" speed="27.78" length="20.76" shape="112.18,278.48 112.35,257.71"/>
        <lane id=":J06_6_1" index="1" disallow="tram rail_urban rail rail_electric rail_fast ship" speed="27.78" length="20.76" shape="115.38,278.50 115.55,257.74"/>
        <lane id=":J06_6_2" index="2" disallow="tram rail_urban rail rail_electric rail_fast ship" speed="27.78" length="20.76" shape="118.58,278.53 118.75,257.77"/>
    </edge>
    <edge id=":4334594436_0" function="internal">
        <lane id=":4334594436_0_0" index="0" disallow="tram rail_urban rail rail_electric rail_fast ship" speed="3.65" length="4.67" shape="368.16,210.88 368.99,209.69 369.79,209.30 370.59,209.72 371.36,210.93"/>
    </edge>
    <edge id=":4334594437_0" function="internal">
        <lane id=":4334594437_0_0" index="0" disallow="tram rail_urban rail rail_electric rail_fast ship" speed="27.78" length="8.37" shape="370.82,241.01 371.28,243.46 372.36,245.01 373.44,246.55 373.93,249.00"/>
        <lane id=":4334594437_0_1" index="1" disallow="tram rail_urban rail rail_electric rail_fast ship" speed="27.78" length="8.37" shape="370.82,241.01 370.73,248.99"/>
    </edge>
    <edge id=":4334594437_2" function="internal">
        <lane id=":4334594437_2_0" index="0" disallow="tram rail_urban rail rail_electric rail_fast ship" speed="27.78" length="8.02" shape="367.53,248.97 367.63,240.95"/>
    </edge>
    <edge id=":4334594442_0" function="internal">
        <lane id=":4334594442_0_0" index="0" disallow="tram rail_urban rail rail_electric rail_fast ship" speed="27.78" length="8.00" shape="369.07,386.12 368.96,394.12"/>
    </edge>
    <edge id=":4334594442_1" function="internal">
        <lane id=":4334594442_1_0" index="0" disallow="tram rail_urban rail rail_electric rail_fast ship" speed="27.78" length="8.40" shape="365.76,394.07 365.30,391.61 364.22,390.05 363.14,388.50 362.67,386.03"/>
        <lane id=":4334594442_1_1" index="1" disallow="tram rail_urban rail rail_electric rail_fast ship" speed="27.78" length="8.40" shape="365.76,394.07 365.87,386.07"/>
    </edge>
    <edge id=":4334594444_0" function="internal">
        <lane id=":4334594444_0_0" index="0" disallow="tram rail_urban rail rail_electric rail_fast ship" speed="27.78" length="8.40" shape="368.63,418.21 369.10,420.68 370.18,422.23 371.26,423.78 371.73,426.25"/>
        <lane id=":4334594444_0_1" index="1" disallow="tram rail_urban rail rail_electric rail_fast ship" speed="27.78" length="8.40" shape="368.63,418.21 368.53,426.21"/>
    </edge>
    <edge id=":4334594444_2" function="internal">
        <lane id=":4334594444_2_0" index="0" disallow="tram rail_urban rail rail_electric rail_fast ship" speed="27.78" length="8.00" shape="365.33,426.17 365.44,418.17"/>
    </edge>
    <edge id=":4334600821_0" function="internal">