<?xml version="1.0" encoding="UTF-8"?>

<!-- generated on 2022-06-28 15:39:01 by Eclipse SUMO netconvert Version 1.13.0
<configuration xmlns:xsi="http://www.w3.org/2001/XMLSchema-instance" xsi:noNamespaceSchemaLocation="http://sumo.dlr.de/xsd/netconvertConfiguration.xsd">

    <input>
        <type-files value="C:\Program%20Files%20(x86)\Eclipse\Sumo\data\typemap\osmNetconvert.typ.xml"/>
        <osm-files value="osm_bbox.osm.xml.gz"/>
    </input>

    <output>
        <output-file value="osm.net.xml"/>
        <output.street-names value="true"/>
        <output.original-names value="true"/>
    </output>

    <projection>
        <proj.utm value="true"/>
    </projection>

    <processing>
        <geometry.remove value="true"/>
        <roundabouts.guess value="true"/>
    </processing>

    <tls_building>
        <tls.discard-simple value="true"/>
        <tls.join value="true"/>
        <tls.guess-signals value="true"/>
        <tls.default-type value="actuated"/>
    </tls_building>

    <ramp_guessing>
        <ramps.guess value="true"/>
    </ramp_guessing>

    <edge_removal>
        <keep-edges.by-vclass value="passenger"/>
    </edge_removal>

    <junctions>
        <junctions.join value="true"/>
        <junctions.corner-detail value="5"/>
    </junctions>

    <report>
        <verbose value="true"/>
        <aggregate-warnings value="5"/>
    </report>

</configuration>
-->

<net version="1.9" junctionCornerDetail="5" limitTurnSpeed="5.50" xmlns:xsi="http://www.w3.org/2001/XMLSchema-instance" xsi:noNamespaceSchemaLocation="http://sumo.dlr.de/xsd/net_file.xsd">

    <location netOffset="-447290.00,-4636578.64" convBoundary="0.00,0.00,896.28,564.45" origBoundary="-87.635271,41.879384,-87.624483,41.884489" projParameter="+proj=utm +zone=16 +ellps=WGS84 +datum=WGS84 +units=m +no_defs"/>

    <type id="highway.bridleway" priority="1" numLanes="1" speed="2.78" allow="pedestrian" oneway="1" width="2.00"/>
    <type id="highway.bus_guideway" priority="1" numLanes="1" speed="27.78" allow="bus" oneway="1"/>
    <type id="highway.cycleway" priority="1" numLanes="1" speed="8.33" allow="bicycle" oneway="0" width="1.00"/>
    <type id="highway.footway" priority="1" numLanes="1" speed="2.78" allow="pedestrian" oneway="1" width="2.00"/>
    <type id="highway.ford" priority="1" numLanes="1" speed="2.78" allow="army" oneway="0"/>
    <type id="highway.living_street" priority="2" numLanes="1" speed="2.78" disallow="tram rail_urban rail rail_electric rail_fast ship" oneway="0"/>
    <type id="highway.motorway" priority="14" numLanes="2" speed="39.44" allow="private emergency authority army vip passenger hov taxi bus coach delivery truck trailer motorcycle evehicle custom1 custom2" oneway="1"/>
    <type id="highway.motorway_link" priority="9" numLanes="1" speed="22.22" allow="private emergency authority army vip passenger hov taxi bus coach delivery truck trailer motorcycle evehicle custom1 custom2" oneway="1"/>
    <type id="highway.path" priority="1" numLanes="1" speed="2.78" allow="pedestrian bicycle" oneway="0" width="2.00"/>
    <type id="highway.pedestrian" priority="1" numLanes="1" speed="2.78" allow="pedestrian" oneway="1" width="2.00"/>
    <type id="highway.primary" priority="12" numLanes="2" speed="27.78" disallow="tram rail_urban rail rail_electric rail_fast ship" oneway="0"/>
    <type id="highway.primary_link" priority="7" numLanes="1" speed="22.22" disallow="tram rail_urban rail rail_electric rail_fast ship" oneway="0"/>
    <type id="highway.raceway" priority="15" numLanes="2" speed="83.33" allow="vip" oneway="0"/>
    <type id="highway.residential" priority="3" numLanes="1" speed="13.89" disallow="tram rail_urban rail rail_electric rail_fast ship" oneway="0"/>
    <type id="highway.secondary" priority="11" numLanes="1" speed="27.78" disallow="tram rail_urban rail rail_electric rail_fast ship" oneway="0"/>
    <type id="highway.secondary_link" priority="6" numLanes="1" speed="22.22" disallow="tram rail_urban rail rail_electric rail_fast ship" oneway="0"/>
    <type id="highway.service" priority="1" numLanes="1" speed="5.56" allow="pedestrian delivery bicycle" oneway="0"/>
    <type id="highway.stairs" priority="1" numLanes="1" speed="1.39" allow="pedestrian" oneway="1" width="2.00"/>
    <type id="highway.step" priority="1" numLanes="1" speed="1.39" allow="pedestrian" oneway="1" width="2.00"/>
    <type id="highway.steps" priority="1" numLanes="1" speed="1.39" allow="pedestrian" oneway="1" width="2.00"/>
    <type id="highway.tertiary" priority="10" numLanes="1" speed="22.22" disallow="tram rail_urban rail rail_electric rail_fast ship" oneway="0"/>
    <type id="highway.tertiary_link" priority="5" numLanes="1" speed="22.22" disallow="tram rail_urban rail rail_electric rail_fast ship" oneway="0"/>
    <type id="highway.track" priority="1" numLanes="1" speed="5.56" allow="pedestrian motorcycle moped bicycle" oneway="0"/>
    <type id="highway.trunk" priority="13" numLanes="2" speed="27.78" disallow="pedestrian bicycle tram rail_urban rail rail_electric rail_fast ship" oneway="0"/>
    <type id="highway.trunk_link" priority="8" numLanes="1" speed="22.22" disallow="pedestrian bicycle tram rail_urban rail rail_electric rail_fast ship" oneway="0"/>
    <type id="highway.unclassified" priority="4" numLanes="1" speed="13.89" disallow="tram rail_urban rail rail_electric rail_fast ship" oneway="0"/>
    <type id="highway.unsurfaced" priority="1" numLanes="1" speed="8.33" disallow="tram rail_urban rail rail_electric rail_fast ship" oneway="0"/>
    <type id="railway.highspeed" priority="21" numLanes="1" speed="69.44" allow="rail_fast" oneway="1"/>
    <type id="railway.light_rail" priority="19" numLanes="1" speed="27.78" allow="rail_urban" oneway="1"/>
    <type id="railway.preserved" priority="16" numLanes="1" speed="27.78" allow="rail" oneway="1"/>
    <type id="railway.rail" priority="20" numLanes="1" speed="44.44" allow="rail" oneway="1"/>
    <type id="railway.subway" priority="18" numLanes="1" speed="27.78" allow="rail_urban" oneway="1"/>
    <type id="railway.tram" priority="17" numLanes="1" speed="13.89" allow="tram" oneway="1"/>

    <edge id=":2391003236_0" function="internal">
        <lane id=":2391003236_0_0" index="0" disallow="tram rail_urban rail rail_electric rail_fast ship" speed="27.78" length="8.21" shape="493.24,211.57 493.45,213.97 493.97,215.57 494.50,217.18 494.72,219.57"/>
        <lane id=":2391003236_0_1" index="1" disallow="tram rail_urban rail rail_electric rail_fast ship" speed="27.78" length="8.21" shape="490.04,211.52 490.25,213.91 490.77,215.52 491.30,217.13 491.52,219.53"/>
        <lane id=":2391003236_0_2" index="2" disallow="tram rail_urban rail rail_electric rail_fast ship" speed="27.78" length="8.21" shape="486.84,211.46 487.05,213.86 487.57,215.48 488.10,217.09 488.33,219.49"/>
        <lane id=":2391003236_0_3" index="3" disallow="tram rail_urban rail rail_electric rail_fast ship" speed="27.78" length="8.21" shape="486.84,211.46 486.55,213.86 485.97,215.46 485.40,217.06 485.13,219.46"/>
    </edge>
    <edge id=":262072521_0" function="internal">
        <lane id=":262072521_0_0" index="0" disallow="tram rail_urban rail rail_electric rail_fast ship" speed="27.78" length="8.00" shape="623.76,350.03 623.63,358.02"/>
        <lane id=":262072521_0_1" index="1" disallow="tram rail_urban rail rail_electric rail_fast ship" speed="27.78" length="8.00" shape="620.56,349.98 620.43,357.97"/>
    </edge>
    <edge id=":262072521_2" function="internal">
        <lane id=":262072521_2_0" index="0" disallow="tram rail_urban rail rail_electric rail_fast ship" speed="27.78" length="8.54" shape="614.03,357.87 613.57,355.40 612.49,353.84 611.42,352.29 610.96,349.82"/>
        <lane id=":262072521_2_1" index="1" disallow="tram rail_urban rail rail_electric rail_fast ship" speed="27.78" length="8.54" shape="617.23,357.92 616.77,355.45 615.69,353.90 614.62,352.34 614.16,349.87"/>
        <lane id=":262072521_2_2" index="2" disallow="tram rail_urban rail rail_electric rail_fast ship" speed="27.78" length="8.54" shape="617.23,357.92 617.36,349.92"/>
    </edge>
    <edge id=":27446708_0" function="internal">
        <lane id=":27446708_0_0" index="0" disallow="tram rail_urban rail rail_electric rail_fast ship" speed="3.65" length="4.67" shape="623.39,5.09 624.21,3.90 625.01,3.51 625.81,3.91 626.59,5.12"/>
    </edge>
    <edge id=":27446709_0" function="internal">
        <lane id=":27446709_0_0" index="0" disallow="tram rail_urban rail rail_electric rail_fast ship" speed="8.33" length="13.34" shape="628.54,137.82 628.89,141.95 630.05,145.07 632.02,147.18 634.79,148.29"/>
    </edge>
    <edge id=":27446709_1" function="internal">
        <lane id=":27446709_1_0" index="0" disallow="tram rail_urban rail rail_electric rail_fast ship" speed="27.78" length="18.38" shape="628.54,137.82 628.27,156.22"/>
        <lane id=":27446709_1_1" index="1" disallow="tram rail_urban rail rail_electric rail_fast ship" speed="27.78" length="18.38" shape="625.34,137.79 625.08,156.16"/>
    </edge>
    <edge id=":27446709_3" function="internal">
        <lane id=":27446709_3_0" index="0" disallow="tram rail_urban rail rail_electric rail_fast ship" speed="3.65" length="1.44" shape="625.34,137.79 624.52,138.99"/>
    </edge>
    <edge id=":27446709_12" function="internal">
        <lane id=":27446709_12_0" index="0" disallow="tram rail_urban rail rail_electric rail_fast ship" speed="3.65" length="3.23" shape="624.52,138.99 623.72,139.38 622.92,138.97 622.14,137.76"/>
    </edge>
    <edge id=":27446709_4" function="internal">
        <lane id=":27446709_4_0" index="0" disallow="tram rail_urban rail rail_electric rail_fast ship" speed="6.85" length="10.14" shape="611.47,142.71 614.72,142.44 617.04,141.51 618.45,139.95 618.94,137.73"/>
    </edge>
    <edge id=":27446709_5" function="internal">
        <lane id=":27446709_5_0" index="0" disallow="tram rail_urban rail rail_electric rail_fast ship" speed="27.78" length="24.09" shape="611.47,142.71 618.79,143.38 623.94,144.85 628.69,146.65 634.79,148.29"/>
        <lane id=":27446709_5_1" index="1" disallow="tram rail_urban rail rail_electric rail_fast ship" speed="27.78" length="24.09" shape="610.88,145.90 618.19,146.57 623.34,148.02 628.08,149.80 634.18,151.43"/>
    </edge>
    <edge id=":27446709_7" function="internal">
        <lane id=":27446709_7_0" index="0" disallow="tram rail_urban rail rail_electric rail_fast ship" speed="8.93" length="18.03" shape="610.29,149.09 616.81,149.61 621.45,150.96 624.20,153.14 625.08,156.16"/>
    </edge>
    <edge id=":27446709_8" function="internal">
        <lane id=":27446709_8_0" index="0" disallow="tram rail_urban rail rail_electric rail_fast ship" speed="27.78" length="18.67" shape="615.48,155.97 616.08,150.51 617.24,146.85 618.38,143.19 618.94,137.73"/>
        <lane id=":27446709_8_1" index="1" disallow="tram rail_urban rail rail_electric rail_fast ship" speed="27.78" length="18.67" shape="618.68,156.03 619.28,150.56 620.44,146.90 621.58,143.23 622.14,137.76"/>
    </edge>
    <edge id=":27446709_10" function="internal">
        <lane id=":27446709_10_0" index="0" disallow="tram rail_urban rail rail_electric rail_fast ship" speed="7.80" length="2.76" shape="621.88,156.09 622.62,153.44"/>
    </edge>
    <edge id=":27446709_11" function="internal">
        <lane id=":27446709_11_0" index="0" disallow="tram rail_urban rail rail_electric rail_fast ship" speed="3.65" length="1.44" shape="621.88,156.09 622.70,154.91"/>
    </edge>
    <edge id=":27446709_13" function="internal">
        <lane id=":27446709_13_0" index="0" disallow="tram rail_urban rail rail_electric rail_fast ship" speed="7.80" length="12.41" shape="622.62,153.44 622.70,153.18 625.02,151.43 628.85,150.85 634.18,151.43"/>
    </edge>
    <edge id=":27446709_14" function="internal">
        <lane id=":27446709_14_0" index="0" disallow="tram rail_urban rail rail_electric rail_fast ship" speed="3.65" length="3.23" shape="622.70,154.91 623.51,154.52 624.30,154.94 625.08,156.16"/>
    </edge>
    <edge id=":27446710_0" function="internal">
        <lane id=":27446710_0_0" index="0" disallow="tram rail_urban rail rail_electric rail_fast ship" speed="6.50" length="9.03" shape="749.86,150.85 752.32,150.55 754.09,149.53 755.17,147.80 755.55,145.35"/>
    </edge>
    <edge id=":27446710_1" function="internal">
        <lane id=":27446710_1_0" index="0" disallow="tram rail_urban rail rail_electric rail_fast ship" speed="27.78" length="14.46" shape="749.86,150.85 764.32,151.13"/>
        <lane id=":27446710_1_1" index="1" disallow="tram rail_urban rail rail_electric rail_fast ship" speed="27.78" length="14.46" shape="749.80,154.05 764.26,154.33"/>
    </edge>
    <edge id=":27446710_3" function="internal">
        <lane id=":27446710_3_0" index="0" disallow="tram rail_urban rail rail_electric rail_fast ship" speed="27.78" length="14.46" shape="755.41,159.83 755.55,145.35"/>
        <lane id=":27446710_3_1" index="1" disallow="tram rail_urban rail rail_electric rail_fast ship" speed="27.78" length="14.46" shape="758.61,159.85 758.75,145.40"/>
    </edge>
    <edge id=":27446710_5" function="internal">
        <lane id=":27446710_5_0" index="0" disallow="tram rail_urban rail rail_electric rail_fast ship" speed="6.48" length="9.03" shape="758.61,159.85 758.97,157.39 760.04,155.66 761.80,154.63 764.26,154.33"/>
    </edge>
    <edge id=":27446719_0" function="internal">
        <lane id=":27446719_0_0" index="0" disallow="tram rail_urban rail rail_electric rail_fast ship" speed="27.78" length="14.42" shape="763.06,297.74 748.66,297.57"/>
        <lane id=":27446719_0_1" index="1" disallow="tram rail_urban rail rail_electric rail_fast ship" speed="27.78" length="14.42" shape="763.10,294.54 748.69,294.37"/>
        <lane id=":27446719_0_2" index="2" disallow="tram rail_urban rail rail_electric rail_fast ship" speed="27.78" length="14.42" shape="763.15,291.34 748.72,291.17"/>
    </edge>
    <edge id=":27446719_3" function="internal">
        <lane id=":27446719_3_0" index="0" disallow="tram rail_urban rail rail_electric rail_fast ship" speed="6.53" length="9.07" shape="763.15,291.34 760.69,290.96 758.95,289.88 757.91,288.11 757.58,285.65"/>
    </edge>
    <edge id=":27446719_4" function="internal">
        <lane id=":27446719_4_0" index="0" disallow="tram rail_urban rail rail_electric rail_fast ship" speed="6.50" length="9.03" shape="754.18,303.23 753.87,300.78 752.84,299.02 751.10,297.95 748.66,297.57"/>
    </edge>
    <edge id=":27446719_5" function="internal">
        <lane id=":27446719_5_0" index="0" disallow="tram rail_urban rail rail_electric rail_fast ship" speed="27.78" length="17.62" shape="754.18,303.23 754.38,285.63"/>
        <lane id=":27446719_5_1" index="1" disallow="tram rail_urban rail rail_electric rail_fast ship" speed="27.78" length="17.62" shape="757.38,303.28 757.58,285.65"/>
    </edge>
    <edge id=":27446720_0" function="internal">
        <lane id=":27446720_0_0" index="0" disallow="tram rail_urban rail rail_electric rail_fast ship" speed="6.77" length="10.66" shape="632.33,296.65 628.95,296.60 626.53,297.40 625.05,299.03 624.53,301.50"/>
    </edge>
    <edge id=":27446720_1" function="internal">
        <lane id=":27446720_1_0" index="0" disallow="tram rail_urban rail rail_electric rail_fast ship" speed="27.78" length="29.44" shape="632.33,296.65 603.31,291.37"/>
        <lane id=":27446720_1_1" index="1" disallow="tram rail_urban rail rail_electric rail_fast ship" speed="27.78" length="29.44" shape="632.72,293.47 603.76,288.20"/>
        <lane id=":27446720_1_2" index="2" disallow="tram rail_urban rail rail_electric rail_fast ship" speed="27.78" length="29.44" shape="633.10,290.29 604.20,285.03"/>
    </edge>
    <edge id=":27446720_4" function="internal">
        <lane id=":27446720_4_0" index="0" disallow="tram rail_urban rail rail_electric rail_fast ship" speed="9.02" length="17.12" shape="633.48,287.12 626.93,286.04 622.27,284.60 619.51,282.80 618.65,280.65"/>
    </edge>
    <edge id=":27446720_5" function="internal">
        <lane id=":27446720_5_0" index="0" disallow="tram rail_urban rail rail_electric rail_fast ship" speed="27.78" length="20.94" shape="628.24,281.00 627.53,287.19 626.31,291.40 625.12,295.54 624.53,301.50"/>
        <lane id=":27446720_5_1" index="1" disallow="tram rail_urban rail rail_electric rail_fast ship" speed="27.78" length="20.94" shape="625.05,280.88 624.33,287.09 623.11,291.33 621.92,295.48 621.33,301.45"/>
    </edge>
    <edge id=":27446720_7" function="internal">
        <lane id=":27446720_7_0" index="0" disallow="tram rail_urban rail rail_electric rail_fast ship" speed="9.05" length="2.56" shape="621.85,280.77 620.84,283.12"/>
    </edge>
    <edge id=":27446720_8" function="internal">
        <lane id=":27446720_8_0" index="0" disallow="tram rail_urban rail rail_electric rail_fast ship" speed="3.65" length="1.44" shape="621.85,280.77 621.01,281.94"/>
    </edge>
    <edge id=":27446720_13" function="internal">
        <lane id=":27446720_13_0" index="0" disallow="tram rail_urban rail rail_electric rail_fast ship" speed="9.05" length="17.35" shape="620.84,283.12 620.66,283.54 617.32,285.18 611.83,285.67 604.20,285.03"/>
    </edge>
    <edge id=":27446720_14" function="internal">
        <lane id=":27446720_14_0" index="0" disallow="tram rail_urban rail rail_electric rail_fast ship" speed="3.65" length="3.23" shape="621.01,281.94 620.19,282.31 619.41,281.88 618.65,280.65"/>
    </edge>
    <edge id=":27446720_9" function="internal">
        <lane id=":27446720_9_0" index="0" disallow="tram rail_urban rail rail_electric rail_fast ship" speed="7.82" length="12.25" shape="608.53,301.25 608.26,297.20 607.30,294.21 605.65,292.26 603.31,291.37"/>
    </edge>
    <edge id=":27446720_10" function="internal">
        <lane id=":27446720_10_0" index="0" disallow="tram rail_urban rail rail_electric rail_fast ship" speed="27.78" length="21.13" shape="611.73,301.30 612.33,295.01 613.52,290.71 614.74,286.51 615.45,280.54"/>
        <lane id=":27446720_10_1" index="1" disallow="tram rail_urban rail rail_electric rail_fast ship" speed="27.78" length="21.13" shape="614.93,301.35 615.53,295.08 616.72,290.80 617.94,286.62 618.65,280.65"/>
    </edge>
    <edge id=":27446720_12" function="internal">
        <lane id=":27446720_12_0" index="0" disallow="tram rail_urban rail rail_electric rail_fast ship" speed="3.65" length="1.44" shape="618.13,301.40 618.95,300.21"/>
    </edge>
    <edge id=":27446720_15" function="internal">
        <lane id=":27446720_15_0" index="0" disallow="tram rail_urban rail rail_electric rail_fast ship" speed="3.65" length="3.23" shape="618.95,300.21 619.75,299.82 620.55,300.23 621.33,301.45"/>
    </edge>
    <edge id=":27446756_0" function="internal">
        <lane id=":27446756_0_0" index="0" disallow="tram rail_urban rail rail_electric rail_fast ship" speed="6.60" length="9.14" shape="746.81,420.12 749.28,419.75 751.06,418.69 752.15,416.93 752.55,414.47"/>
    </edge>
    <edge id=":27446756_1" function="internal">
        <lane id=":27446756_1_0" index="0" disallow="tram rail_urban rail rail_electric rail_fast ship" speed="27.78" length="14.37" shape="746.81,420.12 761.18,420.04"/>
        <lane id=":27446756_1_1" index="1" disallow="tram rail_urban rail rail_electric rail_fast ship" speed="27.78" length="14.37" shape="746.83,423.32 761.20,423.24"/>
        <lane id=":27446756_1_2" index="2" disallow="tram rail_urban rail rail_electric rail_fast ship" speed="27.78" length="14.37" shape="746.84,426.52 761.22,426.44"/>
    </edge>
    <edge id=":27446756_4" function="internal">
        <lane id=":27446756_4_0" index="0" disallow="tram rail_urban rail rail_electric rail_fast ship" speed="27.78" length="17.51" shape="752.33,432.00 752.55,414.47"/>
        <lane id=":27446756_4_1" index="1" disallow="tram rail_urban rail rail_electric rail_fast ship" speed="27.78" length="17.51" shape="755.53,432.02 755.75,414.53"/>
    </edge>
    <edge id=":27446756_6" function="internal">
        <lane id=":27446756_6_0" index="0" disallow="tram rail_urban rail rail_electric rail_fast ship" speed="7.35" length="11.73" shape="755.53,432.02 755.90,428.19 756.97,425.45 758.74,423.80 761.20,423.24"/>
        <lane id=":27446756_6_1" index="1" disallow="tram rail_urban rail rail_electric rail_fast ship" speed="6.54" length="9.06" shape="755.53,432.02 755.90,429.59 756.97,427.85 758.74,426.80 761.22,426.44"/>
    </edge>
    <edge id=":27477586_0" function="internal">
        <lane id=":27477586_0_0" index="0" disallow="tram rail_urban rail rail_electric rail_fast ship" speed="6.52" length="9.03" shape="115.56,137.70 118.01,137.38 119.77,136.34 120.85,134.61 121.23,132.17"/>
    </edge>
    <edge id=":27477586_1" function="internal">
        <lane id=":27477586_1_0" index="0" disallow="tram rail_urban rail rail_electric rail_fast ship" speed="27.78" length="14.52" shape="115.52,140.90 119.81,140.69 122.73,140.17 125.65,139.64 129.94,139.43"/>
        <lane id=":27477586_1_1" index="1" disallow="tram rail_urban rail rail_electric rail_fast ship" speed="27.78" length="14.52" shape="115.49,144.10 119.79,143.89 122.70,143.37 125.62,142.84 129.92,142.63"/>
    </edge>
    <edge id=":27477586_3" function="internal">
        <lane id=":27477586_3_0" index="0" disallow="tram rail_urban rail rail_electric rail_fast ship" speed="22.22" length="17.58" shape="121.03,149.75 121.23,132.17"/>
        <lane id=":27477586_3_1" index="1" disallow="tram rail_urban rail rail_electric rail_fast ship" speed="22.22" length="17.58" shape="124.23,149.78 124.43,132.20"/>
    </edge>
    <edge id=":27477586_5" function="internal">
        <lane id=":27477586_5_0" index="0" disallow="tram rail_urban rail rail_electric rail_fast ship" speed="6.94" length="10.37" shape="124.23,149.78 124.61,146.64 125.69,144.39 127.46,143.06 129.92,142.63"/>
    </edge>
    <edge id=":27477590_0" function="internal">
        <lane id=":27477590_0_0" index="0" disallow="tram rail_urban rail rail_electric rail_fast ship" speed="27.78" length="14.45" shape="128.04,286.45 113.62,286.33"/>
        <lane id=":27477590_0_1" index="1" disallow="tram rail_urban rail rail_electric rail_fast ship" speed="27.78" length="14.45" shape="128.08,283.25 113.63,283.13"/>
        <lane id=":27477590_0_2" index="2" disallow="tram rail_urban rail rail_electric rail_fast ship" speed="27.78" length="14.45" shape="128.12,280.05 113.64,279.93"/>
    </edge>
    <edge id=":27477590_3" function="internal">
        <lane id=":27477590_3_0" index="0" disallow="tram rail_urban rail rail_electric rail_fast ship" speed="6.51" length="9.03" shape="128.12,280.05 125.68,279.67 123.94,278.59 122.92,276.83 122.60,274.37"/>
    </edge>
    <edge id=":27477590_4" function="internal">
        <lane id=":27477590_4_0" index="0" disallow="tram rail_urban rail rail_electric rail_fast ship" speed="6.48" length="9.03" shape="119.16,291.96 118.84,289.51 117.81,287.75 116.07,286.69 113.62,286.33"/>
    </edge>
    <edge id=":27477590_5" function="internal">
        <lane id=":27477590_5_0" index="0" disallow="tram rail_urban rail rail_electric rail_fast ship" speed="25.00" length="17.64" shape="119.16,291.96 119.40,274.33"/>
        <lane id=":27477590_5_1" index="1" disallow="tram rail_urban rail rail_electric rail_fast ship" speed="25.00" length="17.64" shape="122.36,292.00 122.60,274.37"/>
    </edge>
    <edge id=":27477591_0" function="internal">
        <lane id=":27477591_0_0" index="0" disallow="tram rail_urban rail rail_electric rail_fast ship" speed="6.60" length="9.19" shape="111.61,421.24 114.11,420.88 115.92,419.82 117.01,418.06 117.41,415.60"/>
    </edge>
    <edge id=":27477591_1" function="internal">
        <lane id=":27477591_1_0" index="0" disallow="tram rail_urban rail rail_electric rail_fast ship" speed="27.78" length="14.47" shape="111.61,421.24 126.08,421.18"/>
        <lane id=":27477591_1_1" index="1" disallow="tram rail_urban rail rail_electric rail_fast ship" speed="27.78" length="14.47" shape="111.62,424.44 126.09,424.38"/>
        <lane id=":27477591_1_2" index="2" disallow="tram rail_urban rail rail_electric rail_fast ship" speed="27.78" length="14.47" shape="111.64,427.64 126.10,427.58"/>
        <lane id=":27477591_1_3" index="3" disallow="tram rail_urban rail rail_electric rail_fast ship" speed="27.78" length="14.47" shape="111.65,430.84 126.12,430.78"/>
    </edge>
    <edge id=":27477591_5" function="internal">
        <lane id=":27477591_5_0" index="0" disallow="tram rail_urban rail rail_electric rail_fast ship" speed="27.78" length="20.76" shape="117.14,436.36 117.41,415.60"/>
        <lane id=":27477591_5_1" index="1" disallow="tram rail_urban rail rail_electric rail_fast ship" speed="27.78" length="20.76" shape="120.34,436.40 120.61,415.65"/>
    </edge>
    <edge id=":27477591_7" function="internal">
        <lane id=":27477591_7_0" index="0" disallow="tram rail_urban rail rail_electric rail_fast ship" speed="7.39" length="11.82" shape="120.34,436.40 120.73,432.55 121.82,429.80 123.61,428.14 126.10,427.58"/>
        <lane id=":27477591_7_1" index="1" disallow="tram rail_urban rail rail_electric rail_fast ship" speed="6.58" length="9.16" shape="120.34,436.40 120.72,433.95 121.81,432.20 123.61,431.14 126.12,430.78"/>
    </edge>
    <edge id=":28289299_0" function="internal">
        <lane id=":28289299_0_0" index="0" disallow="tram rail_urban rail rail_electric rail_fast ship" speed="27.78" length="20.70" shape="499.44,289.47 478.82,289.29"/>
        <lane id=":28289299_0_1" index="1" disallow="tram rail_urban rail rail_electric rail_fast ship" speed="27.78" length="20.70" shape="499.50,286.27 478.81,286.09"/>
        <lane id=":28289299_0_2" index="2" disallow="tram rail_urban rail rail_electric rail_fast ship" speed="27.78" length="20.70" shape="499.56,283.08 478.80,282.89"/>
    </edge>
    <edge id=":28289299_3" function="internal">
        <lane id=":28289299_3_0" index="0" disallow="tram rail_urban rail rail_electric rail_fast ship" speed="27.78" length="17.71" shape="494.04,277.38 493.73,282.61 493.14,286.17 492.56,289.73 492.26,294.96"/>
        <lane id=":28289299_3_1" index="1" disallow="tram rail_urban rail rail_electric rail_fast ship" speed="27.78" length="17.71" shape="490.84,277.34 490.53,282.58 489.94,286.14 489.36,289.70 489.06,294.94"/>
        <lane id=":28289299_3_2" index="2" disallow="tram rail_urban rail rail_electric rail_fast ship" speed="27.78" length="17.71" shape="487.64,277.31 487.33,282.54 486.74,286.11 486.16,289.67 485.86,294.91"/>
    </edge>
    <edge id=":28289299_6" function="internal">
        <lane id=":28289299_6_0" index="0" disallow="tram rail_urban rail rail_electric rail_fast ship" speed="7.34" length="11.74" shape="484.44,277.27 484.05,281.14 482.98,283.90 481.23,285.55 478.81,286.09"/>
        <lane id=":28289299_6_1" index="1" disallow="tram rail_urban rail rail_electric rail_fast ship" speed="6.53" length="9.07" shape="484.44,277.27 484.06,279.74 483.00,281.50 481.24,282.55 478.80,282.89"/>
    </edge>
    <edge id=":28289310_0" function="internal">
        <lane id=":28289310_0_0" index="0" disallow="tram rail_urban rail rail_electric rail_fast ship" speed="27.78" length="21.10" shape="377.26,290.40 370.99,289.87 366.69,288.74 362.49,287.62 356.50,287.09"/>
        <lane id=":28289310_0_1" index="1" disallow="tram rail_urban rail rail_electric rail_fast ship" speed="27.78" length="21.10" shape="377.28,287.20 371.01,286.67 366.71,285.54 362.51,284.42 356.52,283.89"/>
    </edge>
    <edge id=":28289310_2" function="internal">
        <lane id=":28289310_2_0" index="0" disallow="tram rail_urban rail rail_electric rail_fast ship" speed="8.29" length="15.44" shape="377.30,284.00 372.79,283.42 369.59,281.75 367.70,278.97 367.12,275.09"/>
        <lane id=":28289310_2_1" index="1" disallow="tram rail_urban rail rail_electric rail_fast ship" speed="6.86" length="10.24" shape="377.32,280.80 374.22,280.44 372.02,279.37 370.72,277.61 370.32,275.15"/>
    </edge>
    <edge id=":28289310_4" function="internal">
        <lane id=":28289310_4_0" index="0" disallow="tram rail_urban rail rail_electric rail_fast ship" speed="7.29" length="11.65" shape="362.01,295.84 361.70,292.02 360.68,289.29 358.95,287.64 356.50,287.09"/>
    </edge>
    <edge id=":28289310_5" function="internal">
        <lane id=":28289310_5_0" index="0" disallow="tram rail_urban rail rail_electric rail_fast ship" speed="27.78" length="20.87" shape="365.20,295.88 363.92,275.03"/>
        <lane id=":28289310_5_1" index="1" disallow="tram rail_urban rail rail_electric rail_fast ship" speed="27.78" length="20.87" shape="368.40,295.92 367.12,275.09"/>
        <lane id=":28289310_5_2" index="2" disallow="tram rail_urban rail rail_electric rail_fast ship" speed="27.78" length="20.87" shape="371.60,295.96 370.32,275.15"/>
    </edge>
    <edge id=":28289318_0" function="internal">
        <lane id=":28289318_0_0" index="0" disallow="tram rail_urban rail rail_electric rail_fast ship" speed="7.41" length="11.84" shape="250.76,286.46 248.25,286.99 246.43,288.62 245.29,291.35 244.83,295.19"/>
    </edge>
    <edge id=":28289318_1" function="internal">
        <lane id=":28289318_1_0" index="0" disallow="tram rail_urban rail rail_electric rail_fast ship" speed="27.78" length="14.65" shape="250.76,286.46 246.43,286.68 243.48,287.21 240.53,287.72 236.20,287.91"/>
        <lane id=":28289318_1_1" index="1" disallow="tram rail_urban rail rail_electric rail_fast ship" speed="27.78" length="14.65" shape="250.78,283.26 246.46,283.48 243.51,284.01 240.57,284.52 236.24,284.71"/>