<?xml version="1.0" encoding="UTF-8"?>

<!-- generated on 2022-06-28 15:39:02 by Eclipse SUMO polyconvert Version 1.13.0
<configuration xmlns:xsi="http://www.w3.org/2001/XMLSchema-instance" xsi:noNamespaceSchemaLocation="http://sumo.dlr.de/xsd/polyconvertConfiguration.xsd">

    <input>
        <net-file value="osm.net.xml"/>
        <osm-files value="osm_bbox.osm.xml.gz"/>
        <osm.keep-full-type value="true"/>
        <type-file value="C:\Program%20Files%20(x86)\Eclipse\Sumo\data\typemap\osmPolyconvert.typ.xml"/>
    </input>

    <output>
        <output-file value="osm.poly.xml"/>
    </output>

    <processing>
        <poi-layer-offset value="5"/>
    </processing>

    <report>
        <verbose value="true"/>
    </report>

</configuration>
-->

<additional xmlns:xsi="http://www.w3.org/2001/XMLSchema-instance" xsi:noNamespaceSchemaLocation="http://sumo.dlr.de/xsd/additional_file.xsd">
    <location netOffset="-447290.00,-4636578.64" convBoundary="0.00,-0.00,896.29,564.45" origBoundary="-87.635271,41.879384,-87.624483,41.884489" projParameter="+proj=utm +zone=16 +ellps=WGS84 +datum=WGS84 +units=m +no_defs"/>

    <poly id="1038884771" type="leisure.swimming_pool" color="207,245,201" fill="1" layer="-2.00" shape="500.850198,521.606329 515.049000,521.901948 515.136344,517.970728 500.929237,517.675170 500.850198,521.606329"/>
    <poly id="1039729671" type="landuse.commercial" color="209,209,204" fill="1" layer="-3.00" shape="9.112269,5.948094 116.795120,6.106881 114.715727,136.886197 6.881637,135.085300 9.112269,5.948094"/>
    <poly id="1041728825" type="landuse.commercial" color="209,209,204" fill="1" layer="-3.00" shape="375.658349,138.550020 479.857823,139.228410 484.281609,10.397404 376.121620,8.515554 375.658349,138.550020"/>
    <poly id="1041728826" type="landuse.commercial" color="209,209,204" fill="1" layer="-3.00" shape="252.613787,136.624038 359.343457,138.336843 361.794657,8.987268 253.641127,7.995496 252.613787,136.624038"/>
    <poly id="1041728827" type="landuse.commercial" color="209,209,204" fill="1" layer="-3.00" shape="129.719797,6.766465 238.779123,7.927335 235.428976,136.595207 129.427297,136.844172 129.719797,6.766465"/>
    <poly id="1041728828" type="landuse.commercial" color="209,209,204" fill="1" layer="-3.00" shape="8.180311,149.110307 114.908534,149.509265 110.544568,277.651791 5.702942,277.405517 8.180311,149.110307"/>
    <poly id="1041728829" type="landuse.commercial" color="209,209,204" fill="1" layer="-3.00" shape="6.207792,292.924249 112.630886,293.869459 110.747308,353.397265 46.369190,353.673264 43.871702,353.680633 42.611972,418.944285 4.614556,418.459316 6.207792,292.924249"/>
    <poly id="1041728830" type="landuse.commercial" color="209,209,204" fill="1" layer="-3.00" shape="42.611972,418.944285 110.069065,418.834253 110.747308,353.397265 46.369190,353.673264 43.871702,353.680633 42.611972,418.944285"/>
    <poly id="1041728831" type="landuse.residential" color="235,235,227" fill="1" layer="-3.00" shape="4.686035,494.250208 4.358389,434.294579 111.131219,434.570943 110.083722,494.947544 4.686035,494.250208"/>
    <poly id="1046396681" type="landuse.commercial" color="209,209,204" fill="1" layer="-3.00" shape="129.082494,148.582943 237.401193,149.749225 235.924432,279.269383 126.891936,277.808636 129.082494,148.582943"/>
    <poly id="1046396683" type="landuse.commercial" color="209,209,204" fill="1" layer="-3.00" shape="126.664296,417.767894 230.840834,416.999310 235.397437,293.330087 127.180814,292.207531 126.664296,417.767894"/>
    <poly id="1046396684" type="landuse.commercial" color="209,209,204" fill="1" layer="-3.00" shape="227.086967,557.239930 122.575689,557.344875 125.140343,431.625013 228.827669,433.180606 227.086967,557.239930"/>
    <poly id="1053110429" type="landuse.commercial" color="209,209,204" fill="1" layer="-3.00" shape="499.117077,10.244205 617.598655,10.875459 615.116676,142.323624 497.276656,140.621824 499.117077,10.244205"/>
    <poly id="1053110434" type="landuse.commercial" color="209,209,204" fill="1" layer="-3.00" shape="688.689056,15.774197 688.281526,56.537455 744.976596,57.145011 748.860249,57.183291 747.256376,146.687737 633.185808,145.278180 634.472299,14.838068 688.689056,15.774197"/>
    <poly id="1053110435" type="landuse.commercial" color="209,209,204" fill="1" layer="-3.00" shape="893.697342,19.398156 767.917723,18.149341 766.884377,146.089297 892.571891,149.814767 893.697342,19.398156"/>
    <poly id="1053110436" type="landuse.residential" color="235,235,227" fill="1" layer="-3.00" shape="827.270639,187.619605 765.961673,186.811897 765.208647,236.005095 826.656300,236.545299 827.270639,187.619605"/>
    <poly id="1053110437" type="landuse.commercial" color="209,209,204" fill="1" layer="-3.00" shape="765.208647,236.005095 826.656300,236.545299 827.270639,187.619605 765.961673,186.811897 765.752231,158.100243 892.025543,160.255859 890.376761,290.576378 764.365641,288.785326 765.208647,236.005095"/>
    <poly id="1053110438" type="landuse.residential" color="235,235,227" fill="1" layer="-3.00" shape="666.120613,174.960846 666.251341,161.058532 666.284936,156.572545 632.798462,155.851375 632.563610,174.795360 640.255062,174.728010 666.120613,174.960846"/>
    <poly id="1053110439" type="landuse.commercial" color="209,209,204" fill="1" layer="-3.00" shape="632.563610,174.795360 640.255062,174.728010 666.120613,174.960846 666.251341,161.058532 666.284936,156.572545 747.514473,158.177788 747.489218,287.753717 631.379321,287.425027 632.563610,174.795360"/>
    <poly id="1053110440" type="landuse.residential" color="235,235,227" fill="1" layer="-3.00" shape="571.937566,151.688852 616.343504,152.363155 615.905516,184.366134 610.197354,184.452310 573.834060,184.052258 572.124508,184.020362 571.937566,151.688852"/>
    <poly id="1053110441" type="landuse.commercial" color="209,209,204" fill="1" layer="-3.00" shape="615.905516,184.366134 610.197354,184.452310 573.834060,184.052258 572.124508,184.020362 571.947159,152.998974 571.937566,151.688852 496.423561,151.020791 495.820290,281.489299 614.618739,282.950855 615.905516,184.366134"/>
    <poly id="1053110442" type="landuse.commercial" color="209,209,204" fill="1" layer="-3.00" shape="482.296431,152.678858 375.454220,151.420277 374.346253,279.527531 482.206183,279.523923 482.296431,152.678858"/>
    <poly id="1053110443" type="landuse.religious" color="194,194,130" fill="1" layer="-3.00" shape="316.174479,233.621124 359.281762,233.781515 358.756098,249.185699 355.951254,249.150804 317.073975,248.737243 315.862428,248.723951 316.174479,233.621124"/>
    <poly id="1053110444" type="landuse.commercial" color="209,209,204" fill="1" layer="-3.00" shape="358.756098,249.185699 355.951254,249.150804 317.073975,248.737243 315.862428,248.723951 316.174479,233.621124 359.281762,233.781515 359.422007,150.150207 251.626666,149.055937 250.926021,279.214363 358.012425,280.080632 358.756098,249.185699"/>
    <poly id="1053110445" type="landuse.religious" color="194,194,130" fill="1" layer="-3.00" shape="305.110703,351.586621 305.887840,297.085743 305.888136,293.743638 330.392235,293.940854 330.127973,297.495864 329.398221,346.056105 329.358049,351.874547 329.289699,353.862546 305.044402,353.852189 305.110703,351.586621"/>
    <poly id="1053110446" type="landuse.commercial" color="209,209,204" fill="1" layer="-3.00" shape="329.289699,353.862546 329.358049,351.874547 329.398221,346.056105 330.127973,297.495864 330.392235,293.940854 358.222569,293.991561 357.073852,416.503072 248.946993,417.165673 250.852065,292.827595 305.888136,293.743638 305.887840,297.085743 305.110703,351.586621 305.044402,353.852189 329.289699,353.862546"/>
    <poly id="1053110447" type="landuse.religious" color="194,194,130" fill="1" layer="-3.00" shape="372.171091,353.869218 372.251969,415.669772 419.995406,415.696506 419.168048,353.879234 403.477478,353.872343 372.171091,353.869218"/>
    <poly id="1053110448" type="landuse.commercial" color="209,209,204" fill="1" layer="-3.00" shape="419.995406,415.696506 477.588623,415.828951 479.478923,294.588937 373.403559,293.513553 372.171091,353.869218 403.477478,353.872343 419.168048,353.879234 419.995406,415.696506"/>
    <poly id="1053110449" type="landuse.residential" color="235,235,227" fill="1" layer="-3.00" shape="526.296783,353.892748 526.486300,415.981172 571.641231,416.050100 571.433086,392.157263 599.171265,392.142961 605.768824,392.294539 606.035804,353.941696 602.376574,353.935164 526.296783,353.892748"/>
    <poly id="1053110450" type="landuse.commercial" color="209,209,204" fill="1" layer="-3.00" shape="571.641231,416.050100 571.433086,392.157263 599.171265,392.142961 605.768824,392.294539 605.941798,415.932256 571.641231,416.050100"/>
    <poly id="1053110451" type="landuse.commercial" color="209,209,204" fill="1" layer="-3.00" shape="526.486300,415.981172 494.612746,415.537537 495.088197,294.807557 606.966409,296.286421 606.035804,353.941696 602.376574,353.935164 526.296783,353.892748 526.486300,415.981172"/>
    <poly id="1053110452" type="landuse.retail" color="194,194,130" fill="1" layer="-3.00" shape="686.018768,373.753672 626.526205,373.766669 625.837003,414.532020 684.995238,414.232769 685.059874,411.722945 686.018768,373.753672"/>
    <poly id="1053110453" type="landuse.commercial" color="209,209,204" fill="1" layer="-3.00" shape="684.995238,414.232769 745.076620,414.227061 746.794430,302.837097 629.088179,300.899014 626.526205,373.766669 686.018768,373.753672 685.059874,411.722945 684.995238,414.232769"/>
    <poly id="1053110454" type="landuse.residential" color="235,235,227" fill="1" layer="-3.00" shape="825.472184,335.950840 888.448985,335.803119 889.008452,304.365553 825.832450,303.404385 825.803459,306.258149 825.472184,335.950840"/>
    <poly id="1053110455" type="landuse.commercial" color="209,209,204" fill="1" layer="-3.00" shape="825.832450,303.404385 825.803459,306.258149 825.472184,335.950840 888.448985,335.803119 887.915244,414.096506 762.189225,414.690667 762.312516,301.935533 825.832450,303.404385"/>
    <poly id="1053110456" type="landuse.residential" color="235,235,227" fill="1" layer="-3.00" shape="768.839589,465.306615 817.820098,465.493536 822.699479,465.569010 821.543765,556.324892 758.813563,557.026604 760.440138,464.957070 768.839589,465.306615"/>
    <poly id="1053110457" type="landuse.commercial" color="209,209,204" fill="1" layer="-3.00" shape="760.440138,464.957070 761.025827,429.233405 823.039690,429.136531 822.699479,465.569010 817.820098,465.493536 768.839589,465.306615 760.440138,464.957070"/>
    <poly id="1053110458" type="landuse.commercial" color="209,209,204" fill="1" layer="-3.00" shape="829.945408,429.452620 886.153186,429.642876 887.793422,555.820183 829.541703,556.244403 829.945408,429.452620"/>
    <poly id="1053110464" type="landuse.retail" color="194,194,130" fill="1" layer="-3.00" shape="745.494293,429.391153 625.703678,429.200490 623.604717,556.271226 744.463481,556.454022 745.494293,429.391153"/>
    <poly id="1053110465" type="landuse.retail" color="194,194,130" fill="1" layer="-3.00" shape="606.304298,430.319515 493.456888,429.902619 492.598616,556.120480 604.734900,556.009574 606.304298,430.319515"/>
    <poly id="1053110466" type="landuse.commercial" color="209,209,204" fill="1" layer="-3.00" shape="478.322872,429.958104 369.925184,429.865832 368.913071,558.560918 480.506146,557.919089 478.322872,429.958104"/>
    <poly id="1053110467" type="landuse.commercial" color="209,209,204" fill="1" layer="-3.00" shape="356.229993,431.509880 249.075529,431.232653 246.978788,557.692911 354.839650,557.254267 356.229993,431.509880"/>
    <poly id="108240964" type="amenity.townhall" color="237,199,199" fill="1" layer="-1.00" shape="255.853537,436.734385 299.847697,436.932276 302.677195,436.944760 304.710106,436.952004 304.890858,463.765228 299.729861,463.758802 274.870967,463.753071 274.855737,471.825309 281.817235,471.829562 281.803801,484.654014 292.889160,484.672327 292.890592,481.485659 302.274931,481.494303 302.248447,503.823307 294.241495,503.815627 294.243827,500.751089 281.723056,500.732240 281.710932,513.734337 275.097942,513.727518 275.086475,522.310482 304.143851,522.351928 304.105011,549.766352 301.997134,549.715247 255.698388,549.700883 255.766886,498.180890 255.806434,468.634619 255.853537,436.734385"/>
    <poly id="108240964#1" type="building.public" color="255,230,230" fill="1" layer="-1.00" shape="255.853537,436.734385 299.847697,436.932276 302.677195,436.944760 304.710106,436.952004 304.890858,463.765228 299.729861,463.758802 274.870967,463.753071 274.855737,471.825309 281.817235,471.829562 281.803801,484.654014 292.889160,484.672327 292.890592,481.485659 302.274931,481.494303 302.248447,503.823307 294.241495,503.815627 294.243827,500.751089 281.723056,500.732240 281.710932,513.734337 275.097942,513.727518 275.086475,522.310482 304.143851,522.351928 304.105011,549.766352 301.997134,549.715247 255.698388,549.700883 255.766886,498.180890 255.806434,468.634619 255.853537,436.734385"/>
    <poly id="108240966" type="building.office" color="255,230,230" fill="1" layer="-1.00" shape="222.958061,360.685775 175.124498,361.993421 174.052870,405.681857 223.686356,406.581598 222.958061,360.685775"/>
    <poly id="108240968" type="building.public" color="255,230,230" fill="1" layer="-1.00" shape="349.430714,436.645204 349.386656,493.838804 349.386730,499.490401 349.353079,550.199582 304.105011,549.766352 304.143851,522.351928 332.797947,522.840592 332.835266,508.739081 326.736677,508.728429 326.755640,501.155815 316.334057,501.132565 316.321866,503.986212 302.248447,503.823307 302.274931,481.494303 315.574661,481.374216 315.566638,484.794102 327.149889,484.819908 327.172494,476.614377 332.391641,476.631498 332.423966,464.106699 304.890858,463.765228 304.710106,436.952004 349.430714,436.645204"/>
    <poly id="108240981" type="building.commercial" color="255,230,230" fill="1" layer="-1.00" shape="106.900074,152.721767 57.097199,152.723434 57.185803,160.217531 56.989771,197.670536 57.099469,209.139473 106.893652,209.137863 106.900074,152.721767"/>
    <poly id="114824291" type="building.retail" color="255,230,230" fill="1" layer="-1.00" shape="632.199186,551.533856 632.714703,492.693549 633.231620,434.041995 729.711273,434.880366 738.814135,434.969364 737.982262,527.888058 737.763447,552.472419 632.199186,551.533856"/>
    <poly id="114824291#1" type="shop.department_store" color="237,199,255" fill="1" layer="-1.00" shape="632.199186,551.533856 632.714703,492.693549 633.231620,434.041995 729.711273,434.880366 738.814135,434.969364 737.982262,527.888058 737.763447,552.472419 632.199186,551.533856"/>
    <poly id="115914788" type="amenity.arts_centre" color="237,199,199" fill="1" layer="-1.00" shape="832.969735,546.170917 856.899634,546.263081 879.483187,546.054233 879.470535,526.079448 880.696341,438.010085 857.820840,438.054500 834.315095,438.147993 833.242684,526.693699 832.969735,546.170917"/>
    <poly id="115914788#1" type="building.public" color="255,230,230" fill="1" layer="-1.00" shape="832.969735,546.170917 856.899634,546.263081 879.483187,546.054233 879.470535,526.079448 880.696341,438.010085 857.820840,438.054500 834.315095,438.147993 833.242684,526.693699 832.969735,546.170917"/>
    <poly id="124865434" type="building.public" color="255,230,230" fill="1" layer="-1.00" shape="418.124027,410.569407 437.548266,410.571124 447.994706,410.572164 472.662865,410.568798 472.669985,374.216444 463.841489,374.214598 463.843174,372.182676 467.128950,372.180774 467.134930,368.472218 467.133086,355.781126 425.063356,355.568062 424.978385,372.245888 428.496477,372.242263 428.499919,373.841117 418.128097,373.839557 418.124027,410.569407"/>
    <poly id="124865439" type="building.office" color="255,230,230" fill="1" layer="-1.00" shape="230.965981,272.988128 231.184077,217.014616 198.349411,216.890269 198.328721,223.086082 194.627852,223.068962 194.603126,229.842178 191.425063,229.832307 191.375645,242.257303 188.595852,242.244495 188.560680,249.850539 191.464927,249.862428 191.418401,261.554583 195.376462,261.569804 195.348134,267.854501 198.086431,267.867616 198.065115,272.853171 230.965981,272.988128"/>
    <poly id="124865447" type="building.office" color="255,230,230" fill="1" layer="-1.00" shape="378.010408,11.477365 377.866518,70.936734 435.703233,71.078200 435.855904,11.618776 378.010408,11.477365"/>
    <poly id="124865450" type="building.office" color="255,230,230" fill="1" layer="-1.00" shape="831.627799,235.576398 882.278820,235.918168 882.399569,218.307429 833.275265,217.976740 831.748423,217.965657 831.627799,235.576398"/>
    <poly id="124865455" type="building.office" color="255,230,230" fill="1" layer="-1.00" shape="435.855904,11.618776 435.703233,71.078200 483.026379,71.186203 483.171146,11.726844 435.855904,11.618776"/>
    <poly id="124865458" type="building.office" color="255,230,230" fill="1" layer="-1.00" shape="179.633375,267.970415 180.137857,219.378500 171.358290,219.287826 171.374826,218.155164 139.019839,217.816588 139.003555,218.982558 132.032936,218.900785 131.954780,226.296183 130.021292,226.277150 129.674868,259.145583 131.458998,259.165719 131.379352,267.482706 179.633375,267.970415"/>
    <poly id="124865459" type="building.office" color="255,230,230" fill="1" layer="-1.00" shape="768.944578,409.178550 819.044916,409.268491 819.151265,372.626756 768.951187,372.548641 768.944578,409.178550"/>
    <poly id="124865461" type="building.hotel" color="255,230,230" fill="1" layer="-1.00" shape="571.444728,410.744148 599.542122,411.071419 599.171265,392.142961 571.433086,392.157263 571.444728,410.744148"/>
    <poly id="124865461#1" type="tourism.hotel" color="207,245,201" fill="1" layer="-2.00" shape="571.444728,410.744148 599.542122,411.071419 599.171265,392.142961 571.433086,392.157263 571.444728,410.744148"/>
    <poly id="124865462" type="building.office" color="255,230,230" fill="1" layer="-1.00" shape="356.007152,230.796588 356.289577,195.852333 356.323384,191.421856 356.389722,183.515797 327.047391,183.276352 326.665016,230.557147 356.007152,230.796588"/>
    <poly id="124865468" type="building.office" color="255,230,230" fill="1" layer="-1.00" shape="173.804663,133.618659 231.734217,134.035359 232.169523,73.752166 174.239479,73.335459 173.804663,133.618659"/>
    <poly id="124865472" type="amenity.bank" color="237,199,199" fill="1" layer="-1.00" shape="257.095581,123.244820 300.628909,123.701518 301.092831,79.628990 257.559234,79.172286 257.095581,123.244820"/>
    <poly id="124865472#1" type="building.office" color="255,230,230" fill="1" layer="-1.00" shape="257.095581,123.244820 300.628909,123.701518 301.092831,79.628990 257.559234,79.172286 257.095581,123.244820"/>
    <poly id="124865475" type="building.yes" color="255,230,230" fill="1" layer="-1.00" shape="500.850402,489.950730 525.172093,490.260976 525.308458,474.904071 501.095226,474.681855 500.850402,489.950730"/>
    <poly id="124865476" type="tourism.artwork" color="207,245,201" fill="1" layer="-2.00" shape="437.596099,470.206767 447.586368,470.244464 447.602313,464.503924 437.612037,464.466227 437.596099,470.206767"/>
    <poly id="124865478" type="building.commercial" color="255,230,230" fill="1" layer="-1.00" shape="407.334430,134.531055 420.885926,134.709116 421.658450,78.320753 408.106766,78.131587 407.334430,134.531055"/>
    <poly id="124865479" type="building.office" color="255,230,230" fill="1" layer="-1.00" shape="524.514278,275.971557 570.785245,276.487552 571.351326,218.945977 525.270414,218.373063 524.514278,275.971557"/>
    <poly id="124865481" type="building.office" color="255,230,230" fill="1" layer="-1.00" shape="569.809904,77.556443 505.522399,76.939320 504.943716,134.958431 569.239076,135.586586 569.809904,77.556443"/>
    <poly id="124865483" type="amenity.parking" color="184,184,179" fill="1" layer="-1.00" shape="135.158002,131.938599 170.349740,132.078579 170.586981,74.261776 135.394958,74.121792 135.158002,131.938599"/>
    <poly id="124865483#1" type="building.garage" color="255,230,230" fill="1" layer="-1.00" shape="135.158002,131.938599 170.349740,132.078579 170.586981,74.261776 135.394958,74.121792 135.158002,131.938599"/>
    <poly id="124865489" type="building.office" color="255,230,230" fill="1" layer="-1.00" shape="231.099861,208.965320 231.616673,152.989612 209.492658,152.675250 208.983744,208.573181 231.099861,208.965320"/>
    <poly id="124865491" type="building.office" color="255,230,230" fill="1" layer="-1.00" shape="377.550923,134.128089 407.334430,134.531055 408.106766,78.131587 408.145602,75.510916 378.361849,75.107945 377.550923,134.128089"/>
    <poly id="124865493" type="amenity.parking" color="184,184,179" fill="1" layer="-1.00" shape="108.513071,272.226163 108.851696,216.973458 96.695086,216.896720 96.667687,221.049570 39.909457,220.725246 39.820697,236.770227 39.672052,252.571377 39.565544,271.825354 108.513071,272.226163"/>
    <poly id="124865493#1" type="building.garage" color="255,230,230" fill="1" layer="-1.00" shape="108.513071,272.226163 108.851696,216.973458 96.695086,216.896720 96.667687,221.049570 39.909457,220.725246 39.820697,236.770227 39.672052,252.571377 39.565544,271.825354 108.513071,272.226163"/>
    <poly id="124865494" type="building.retail" color="255,230,230" fill="1" layer="-1.00" shape="499.215107,550.953322 587.635080,552.714909 600.410829,553.576281 601.119674,526.856482 601.244062,492.834973 601.668145,435.138977 569.290038,434.898562 501.552688,434.095828 501.174963,465.187923 501.095226,474.681855 525.308458,474.904071 525.172093,490.260976 525.154366,492.370739 525.082648,500.698762 499.533628,500.475240 499.308484,526.347654 499.617043,531.086514 499.215107,550.953322"/>
    <poly id="124865495" type="building.office" color="255,230,230" fill="1" layer="-1.00" shape="158.928668,208.076351 208.983744,208.573181 209.492658,152.675250 159.520162,152.177801 158.966962,203.146188 158.928668,208.076351"/>
    <poly id="124865497" type="building.office" color="255,230,230" fill="1" layer="-1.00" shape="429.881563,134.831823 458.302759,135.034040 463.542484,134.429325 466.652894,133.129622 470.599354,129.292229 472.410239,125.037474 472.895431,121.047821 473.654450,81.991859 430.613374,81.930205 429.881563,134.831823"/>
    <poly id="124873920" type="building.office" color="255,230,230" fill="1" layer="-1.00" shape="353.519309,409.289835 354.022568,356.989437 292.841192,356.429160 292.428870,412.004384 350.133344,412.590217 353.519309,409.289835"/>
    <poly id="124873925" type="building.commercial" color="255,230,230" fill="1" layer="-1.00" shape="107.922408,350.642299 49.794313,350.072656 50.328298,297.738668 78.218440,298.021009 78.161878,303.839576 101.761744,304.064895 101.569312,322.941992 108.199568,323.015145 107.922408,350.642299"/>
    <poly id="124873932" type="building.office" color="255,230,230" fill="1" layer="-1.00" shape="501.282493,299.925184 500.828709,347.806062 500.815378,349.382832 524.738640,349.607179 596.815401,350.278456 597.283182,300.820820 501.282493,299.925184"/>
    <poly id="124873938" type="building.office" color="255,230,230" fill="1" layer="-1.00" shape="83.070523,131.590540 111.250487,131.704329 111.412245,92.941394 83.232128,92.827603 83.070523,131.590540"/>
    <poly id="126982630" type="building.office" color="255,230,230" fill="1" layer="-1.00" shape="880.744435,380.783224 829.888717,380.676144 829.890654,409.411524 880.951004,409.161805 880.744435,380.783224"/>
    <poly id="126982631" type="building.apartments" color="255,230,230" fill="1" layer="-1.00" shape="880.350669,335.806545 880.355248,325.036293 880.357160,320.739295 880.370440,310.024496 880.368609,307.492953 829.712145,307.473241 829.702704,335.786775 880.350669,335.806545"/>
    <poly id="126982632" type="building.hotel" color="255,230,230" fill="1" layer="-1.00" shape="882.631131,185.140138 882.770906,164.442540 830.069715,164.082386 829.921796,184.780046 832.718281,184.804086 882.631131,185.140138"/>
    <poly id="126982632#1" type="tourism.hotel" color="207,245,201" fill="1" layer="-2.00" shape="882.631131,185.140138 882.770906,164.442540 830.069715,164.082386 829.921796,184.780046 832.718281,184.804086 882.631131,185.140138"/>
    <poly id="126982634" type="building.office" color="255,230,230" fill="1" layer="-1.00" shape="880.744435,380.783224 880.508585,354.081458 880.350669,335.806545 829.702704,335.786775 829.888717,380.676144 880.744435,380.783224"/>
    <poly id="126982636" type="building.office" color="255,230,230" fill="1" layer="-1.00" shape="882.399569,218.307429 882.538317,198.609136 833.413877,198.278445 833.275265,217.976740 882.399569,218.307429"/>
    <poly id="126982639" type="building.office" color="255,230,230" fill="1" layer="-1.00" shape="882.538317,198.609136 882.631131,185.140138 832.718281,184.804086 832.625562,198.273085 833.413877,198.278445 882.538317,198.609136"/>
    <poly id="127107046" type="natural.water" color="181,209,209" fill="1" layer="-4.00" shape="435.294541,200.779156 435.527708,186.198776 420.847481,185.973460 420.622641,200.553781 435.294541,200.779156"/>
    <poly id="131670516" type="building.office" color="255,230,230" fill="1" layer="-1.00" shape="256.621162,205.279727 320.757238,205.762458 320.936714,182.788347 270.699756,182.403101 270.732611,177.850493 256.833277,177.753005 256.621162,205.279727"/>
    <poly id="131670518" type="building.office" color="255,230,230" fill="1" layer="-1.00" shape="256.283976,231.597109 256.468656,213.863727 314.962975,214.443482 314.707857,239.538888 278.378319,239.184514 278.471993,229.368478 272.912234,229.320592 272.880357,231.752456 256.283976,231.597109"/>
    <poly id="132454529" type="amenity.fountain" color="237,199,199" fill="1" layer="-1.00" shape="391.688257,465.869443 408.017605,465.893819 408.044859,449.271929 391.723770,449.247492 391.688257,465.869443"/>
    <poly id="137060374" type="amenity.place_of_worship" color="237,199,199" fill="1" layer="-1.00" shape="377.424755,410.502012 403.130282,410.524091 403.334382,373.926010 403.438706,355.371577 377.750635,355.493708 377.424755,410.502012"/>
    <poly id="137060374#1" type="building.office" color="255,230,230" fill="1" layer="-1.00" shape="377.424755,410.502012 403.130282,410.524091 403.334382,373.926010 403.438706,355.371577 377.750635,355.493708 377.424755,410.502012"/>
    <poly id="144351492" type="amenity.prison" color="237,199,199" fill="1" layer="-1.00" shape="70.494242,70.270948 77.134508,70.543863 109.993276,70.467624 110.497556,10.672450 70.683217,10.522511 70.494242,70.270948"/>
    <poly id="144351492#1" type="building.yes" color="255,230,230" fill="1" layer="-1.00" shape="70.494242,70.270948 77.134508,70.543863 109.993276,70.467624 110.497556,10.672450 70.683217,10.522511 70.494242,70.270948"/>
    <poly id="144351493" type="building.office" color="255,230,230" fill="1" layer="-1.00" shape="10.621242,69.692280 11.066278,9.853111 50.494015,10.460813 70.683217,10.522511 70.494242,70.270948 50.305127,70.198150 10.621242,69.692280"/>
    <poly id="145080934" type="building.office" color="255,230,230" fill="1" layer="-1.00" shape="329.398221,346.056105 354.061089,346.429884 354.790927,297.858545 330.127973,297.495864 329.398221,346.056105"/>
    <poly id="145080935" type="building.office" color="255,230,230" fill="1" layer="-1.00" shape="287.697754,296.831021 305.887840,297.085743 305.110703,351.586621 286.929054,351.331841 287.697754,296.831021"/>
    <poly id="145080937" type="amenity.place_of_worship" color="237,199,199" fill="1" layer="-1.00" shape="305.110703,351.586621 329.358049,351.874547 329.398221,346.056105 330.127973,297.495864 305.887840,297.085743 305.110703,351.586621"/>
    <poly id="145080937#1" type="building.church" color="255,230,230" fill="1" layer="-1.00" shape="305.110703,351.586621 329.358049,351.874547 329.398221,346.056105 330.127973,297.495864 305.887840,297.085743 305.110703,351.586621"/>
    <poly id="145080938" type="amenity.place_of_worship" color="237,199,199" fill="1" layer="-1.00" shape="317.073975,248.737243 355.951254,249.150804 356.109826,234.604275 317.232467,234.190713 317.073975,248.737243"/>
    <poly id="145080938#1" type="building.synagogue" color="255,230,230" fill="1" layer="-1.00" shape="317.073975,248.737243 355.951254,249.150804 356.109826,234.604275 317.232467,234.190713 317.073975,248.737243"/>
    <poly id="145203366" type="building.office" color="255,230,230" fill="1" layer="-1.00" shape="499.883426,208.699405 534.379655,209.101655 534.937168,161.752993 520.298790,161.582681 520.483266,155.052575 501.408284,155.247919 499.883426,208.699405"/>
    <poly id="145203367" type="building.hotel" color="255,230,230" fill="1" layer="-1.00" shape="536.360163,212.140557 562.315638,212.205805 562.390649,183.925089 562.636305,161.949812 562.460382,153.790158 536.504695,153.724907 536.360163,212.140557"/>
    <poly id="145498710" type="building.office" color="255,230,230" fill="1" layer="-1.00" shape="827.735448,81.723890 828.245934,25.370847 884.340335,25.506450 883.381591,81.896053 827.735448,81.723890"/>
    <poly id="145498711" type="building.office" color="255,230,230" fill="1" layer="-1.00" shape="827.694908,94.381965 827.735448,81.723890 883.381591,81.896053 883.340952,94.554127 827.694908,94.381965"/>
    <poly id="145498712" type="building.office" color="255,230,230" fill="1" layer="-1.00" shape="827.640479,116.522373 827.694908,94.381965 883.340952,94.554127 883.287239,116.816664 827.640479,116.522373"/>
    <poly id="145498713" type="building.office" color="255,230,230" fill="1" layer="-1.00" shape="883.064695,143.244173 827.575224,142.871018 827.640479,116.522373 883.287239,116.816664 883.064695,143.244173"/>