<?xml version="1.0" encoding="UTF-8"?>

<!-- generated on 2022-06-28 15:39:02 by Eclipse SUMO duarouter Version 1.13.0
<configuration xmlns:xsi="http://www.w3.org/2001/XMLSchema-instance" xsi:noNamespaceSchemaLocation="http://sumo.dlr.de/xsd/duarouterConfiguration.xsd">

    <input>
        <net-file value="C:\Users\jesse\Sumo\2022-06-28-15-38-46\osm.net.xml"/>
        <route-files value="C:\Users\jesse\Sumo\2022-06-28-15-38-46\osm.passenger.trips.xml"/>
    </input>

    <output>
        <output-file value="C:\Users\jesse\Sumo\2022-06-28-15-38-46\osm.passenger.trips.xml.tmp"/>
        <write-trips value="true"/>
    </output>

    <time>
        <begin value="0"/>
        <end value="3600"/>
    </time>

    <report>
        <no-warnings value="true"/>
        <ignore-errors value="true"/>
        <no-step-log value="true"/>
    </report>

</configuration>
-->

<routes xmlns:xsi="http://www.w3.org/2001/XMLSchema-instance" xsi:noNamespaceSchemaLocation="http://sumo.dlr.de/xsd/routes_file.xsd">
    <vType id="veh_passenger" vClass="passenger"/>
    <trip id="veh0" type="veh_passenger" depart="0.00" departLane="best" from="435724119" to="-255563525#1"/>
    <trip id="veh1" type="veh_passenger" depart="1.68" departLane="best" departSpeed="max" from="1049318468#0" to="320480951#0"/>
    <trip id="veh2" type="veh_passenger" depart="3.36" departLane="best" departSpeed="max" from="-23887717#1" to="1035941401#0"/>
    <trip id="veh3" type="veh_passenger" depart="5.05" departLane="best" departSpeed="max" from="1049318468#0" to="435704691#0"/>
    <trip id="veh4" type="veh_passenger" depart="6.73" departLane="best" from="620366463#0" to="48785308#0"/>
    <trip id="veh5" type="veh_passenger" depart="8.41" departLane="best" from="633949079#0" to="435724013#0"/>
    <trip id="veh6" type="veh_passenger" depart="10.09" departLane="best" from="620366463#0" to="5263032"/>
    <trip id="veh7" type="veh_passenger" depart="11.77" departLane="best" departSpeed="max" from="435724041" to="981135345#0"/>
    <trip id="veh8" type="veh_passenger" depart="13.45" departLane="best" from="624405242#0" to="435724022#0"/>
    <trip id="veh9" type="veh_passenger" depart="15.14" departLane="best" departSpeed="max" from="48785101#0" to="-255563525#1"/>
    <trip id="veh10" type="veh_passenger" depart="16.82" departLane="best" departSpeed="max" from="1049318468#0" to="1049318475#0"/>
    <trip id="veh11" type="veh_passenger" depart="18.50" departLane="best" from="-435724074" to="1049318469#0"/>
    <trip id="veh12" type="veh_passenger" depart="20.18" departLane="best" from="-620293814#1" to="1049318474#0"/>
    <trip id="veh13" type="veh_passenger" depart="21.86" departLane="best" from="435724113" to="23700520#2"/>
    <trip id="veh14" type="veh_passenger" depart="23.54" departLane="best" departSpeed="max" from="255563525#0" to="1035941401#0"/>
    <trip id="veh15" type="veh_passenger" depart="25.23" departLane="best" from="1020908652" to="23700520#2"/>
    <trip id="veh16" type="veh_passenger" depart="26.91" departLane="best" departSpeed="max" from="991196427" to="435724077#0"/>
    <trip id="veh17" type="veh_passenger" depart="28.59" departLane="best" departSpeed="max" from="435724041" to="435724119"/>
    <trip id="veh18" type="veh_passenger" depart="30.27" departLane="best" from="633949079#0" to="59678310"/>
    <trip id="veh19" type="veh_passenger" depart="31.95" departLane="best" departSpeed="max" from="1049318468#0" to="-255563525#1"/>
    <trip id="veh21" type="veh_passenger" depart="35.32" departLane="best" departSpeed="max" from="1049318468#0" to="932951024#0"/>
    <trip id="veh22" type="veh_passenger" depart="37.00" departLane="best" from="932951024#0" to="1051441726#3"/>
    <trip id="veh23" type="veh_passenger" depart="38.68" departLane="best" departSpeed="max" from="4477285#0" to="23887717#0"/>
    <trip id="veh24" type="veh_passenger" depart="40.36" departLane="best" from="435724066#0" to="932951023#0"/>
    <trip id="veh25" type="veh_passenger" depart="42.04" departLane="best" from="315089479#0" to="1049318469#0"/>
    <trip id="veh26" type="veh_passenger" depart="43.72" departLane="best" departSpeed="max" from="991196427" to="385889739#0"/>
    <trip id="veh27" type="veh_passenger" depart="45.41" departLane="best" from="-435724077#1" to="-255563525#1"/>
    <trip id="veh28" type="veh_passenger" depart="47.09" departLane="best" departSpeed="max" from="-805924007" to="435724066#0"/>
    <trip id="veh29" type="veh_passenger" depart="48.77" departLane="best" from="620293814#0" to="23887717#0"/>
    <trip id="veh30" type="veh_passenger" depart="50.45" departLane="best" departSpeed="max" from="991196427" to="385889739#0"/>
    <trip id="veh31" type="veh_passenger" depart="52.13" departLane="best" departSpeed="max" from="991196427" to="805911051"/>
    <trip id="veh32" type="veh_passenger" depart="53.81" departLane="best" from="-134319743#1" to="488107952"/>
    <trip id="veh33" type="veh_passenger" depart="55.50" departLane="best" from="1049318474#0" to="435724077#0"/>
    <trip id="veh34" type="veh_passenger" depart="57.18" departLane="best" departSpeed="max" from="-805924007" to="315089479#0"/>
    <trip id="veh35" type="veh_passenger" depart="58.86" departLane="best" from="981135346#0" to="805924007"/>
    <trip id="veh36" type="veh_passenger" depart="60.54" departLane="best" departSpeed="max" from="1051036581#0" to="435724077#0"/>
    <trip id="veh37" type="veh_passenger" depart="62.22" departLane="best" from="488107952" to="385889739#0"/>
    <trip id="veh38" type="veh_passenger" depart="63.90" departLane="best" from="-1049318473#1" to="1051441726#3"/>
    <trip id="veh39" type="veh_passenger" depart="65.59" departLane="best" from="-435724074" to="320480951#0"/>
    <trip id="veh40" type="veh_passenger" depart="67.27" departLane="best" from="-435724022#1" to="59678310"/>
    <trip id="veh41" type="veh_passenger" depart="68.95" departLane="best" departSpeed="max" from="435724014#0" to="385889739#0"/>
    <trip id="veh42" type="veh_passenger" depart="70.63" departLane="best" from="433785009#0" to="1049318469#0"/>
    <trip id="veh43" type="veh_passenger" depart="72.31" departLane="best" departSpeed="max" from="1049318468#0" to="1051441726#3"/>
    <trip id="veh44" type="veh_passenger" depart="73.99" departLane="best" departSpeed="max" from="991196427" to="435724110"/>
    <trip id="veh45" type="veh_passenger" depart="75.68" departLane="best" from="435704691#0" to="385889739#0"/>
    <trip id="veh46" type="veh_passenger" depart="77.36" departLane="best" from="145857414#0" to="435704691#0"/>
    <trip id="veh47" type="veh_passenger" depart="79.04" departLane="best" departSpeed="max" from="1049318468#0" to="932951023#0"/>
    <trip id="veh48" type="veh_passenger" depart="80.72" departLane="best" from="805911051" to="-433785009#1"/>
    <trip id="veh49" type="veh_passenger" depart="82.40" departLane="best" departSpeed="max" from="1049318468#0" to="-620293814#1"/>
    <trip id="veh50" type="veh_passenger" depart="84.08" departLane="best" departSpeed="max" from="991196427" to="433783097#0"/>
    <trip id="veh51" type="veh_passenger" depart="85.77" departLane="best" departSpeed="max" from="435724014#0" to="616249736"/>
    <trip id="veh52" type="veh_passenger" depart="87.45" departLane="best" from="620366463#0" to="1020908653"/>
    <trip id="veh53" type="veh_passenger" depart="89.13" departLane="best" from="-616249736" to="24220202#0"/>
    <trip id="veh54" type="veh_passenger" depart="90.81" departLane="best" departSpeed="max" from="48785101#0" to="435724113"/>
    <trip id="veh55" type="veh_passenger" depart="92.49" departLane="best" departSpeed="max" from="991196427" to="-435724022#1"/>
    <trip id="veh56" type="veh_passenger" depart="94.17" departLane="best" from="433781990#0" to="134319745#0"/>
    <trip id="veh58" type="veh_passenger" depart="97.54" departLane="best" from="1035941401#0" to="320480951#0"/>
    <trip id="veh59" type="veh_passenger" depart="99.22" departLane="best" from="433785009#0" to="1049318474#0"/>
    <trip id="veh60" type="veh_passenger" depart="100.90" departLane="best" departSpeed="max" from="435724041" to="-255563525#1"/>
    <trip id="veh61" type="veh_passenger" depart="102.58" departLane="best" departSpeed="max" from="991196427" to="633949078#0"/>
    <trip id="veh62" type="veh_passenger" depart="104.26" departLane="best" departSpeed="max" from="991196427" to="932951023#0"/>
    <trip id="veh63" type="veh_passenger" depart="105.95" departLane="best" departSpeed="max" from="435724014#0" to="1049318469#0"/>
    <trip id="veh64" type="veh_passenger" depart="107.63" departLane="best" from="433781990#0" to="-255563525#1"/>
    <trip id="veh65" type="veh_passenger" depart="109.31" departLane="best" from="1049318474#0" to="616249736"/>
    <trip id="veh66" type="veh_passenger" depart="110.99" departLane="best" departSpeed="max" from="435704692" to="23887717#0"/>
    <trip id="veh67" type="veh_passenger" depart="112.67" departLane="best" departSpeed="max" from="435724041" to="488107952"/>
    <trip id="veh68" type="veh_passenger" depart="114.36" departLane="best" departSpeed="max" from="991196427" to="433785009#0"/>
    <trip id="veh69" type="veh_passenger" depart="116.04" departLane="best" departSpeed="max" from="435724041" to="59678310"/>
    <trip id="veh70" type="veh_passenger" depart="117.72" departLane="best" from="-435704691#1" to="433785009#0"/>
    <trip id="veh71" type="veh_passenger" depart="119.40" departLane="best" departSpeed="max" from="435724014#0" to="657718778#0"/>
    <trip id="veh73" type="veh_passenger" depart="122.76" departLane="best" from="1049318470#0" to="-435724077#1"/>
    <trip id="veh75" type="veh_passenger" depart="126.13" departLane="best" from="435724022#0" to="932951023#0"/>
    <trip id="veh76" type="veh_passenger" depart="127.81" departLane="best" departSpeed="max" from="1049318468#0" to="488107952"/>
    <trip id="veh77" type="veh_passenger" depart="129.49" departLane="best" from="1049318470#0" to="23887717#0"/>
    <trip id="veh79" type="veh_passenger" depart="132.85" departLane="best" from="-435724066#1" to="320480951#0"/>
    <trip id="veh80" type="veh_passenger" depart="134.54" departLane="best" from="-435724066#1" to="1049318469#0"/>
    <trip id="veh81" type="veh_passenger" depart="136.22" departLane="best" from="932951026#0" to="805924007"/>
    <trip id="veh82" type="veh_passenger" depart="137.90" departLane="best" from="633949078#0" to="48785308#0"/>
    <trip id="veh83" type="veh_passenger" depart="139.58" departLane="best" departSpeed="max" from="4477285#0" to="-134319743#1"/>
    <trip id="veh84" type="veh_passenger" depart="141.26" departLane="best" from="620366464#0" to="1051441726#0"/>
    <trip id="veh85" type="veh_passenger" depart="142.94" departLane="best" departSpeed="max" from="4477285#0" to="932951024#0"/>
    <trip id="veh86" type="veh_passenger" depart="144.63" departLane="best" from="-805911049" to="385889739#0"/>
    <trip id="veh87" type="veh_passenger" depart="146.31" departLane="best" departSpeed="max" from="48785101#0" to="1035941401#0"/>
    <trip id="veh88" type="veh_passenger" depart="147.99" departLane="best" departSpeed="max" from="435724014#0" to="932951023#0"/>
    <trip id="veh89" type="veh_passenger" depart="149.67" departLane="best" from="633949079#0" to="-435704692"/>
    <trip id="veh90" type="veh_passenger" depart="151.35" departLane="best" from="433785009#0" to="1049318473#0"/>
    <trip id="veh91" type="veh_passenger" depart="153.03" departLane="best" from="48785308#0" to="385889739#0"/>
    <trip id="veh92" type="veh_passenger" depart="154.72" departLane="best" from="433785009#0" to="-134319743#1"/>
    <trip id="veh93" type="veh_passenger" depart="156.40" departLane="best" from="-435724066#1" to="805924007"/>
    <trip id="veh94" type="veh_passenger" depart="158.08" departLane="best" from="981135345#0" to="385889739#0"/>
    <trip id="veh95" type="veh_passenger" depart="159.76" departLane="best" departSpeed="max" from="1051036581#0" to="932951023#0"/>
    <trip id="veh96" type="veh_passenger" depart="161.44" departLane="best" from="1049318472#0" to="-435724066#1"/>
    <trip id="veh97" type="veh_passenger" depart="163.12" departLane="best" from="616249736" to="805924007"/>
    <trip id="veh98" type="veh_passenger" depart="164.81" departLane="best" from="1002803298" to="932951023#0"/>
    <trip id="veh99" type="veh_passenger" depart="166.49" departLane="best" from="620366464#0" to="805924007"/>
    <trip id="veh100" type="veh_passenger" depart="168.17" departLane="best" departSpeed="max" from="-23887717#1" to="59678310"/>
    <trip id="veh101" type="veh_passenger" depart="169.85" departLane="best" departSpeed="max" from="1049318468#0" to="620366464#0"/>
    <trip id="veh102" type="veh_passenger" depart="171.53" departLane="best" from="435724013#0" to="1051441726#3"/>
    <trip id="veh103" type="veh_passenger" depart="173.21" departLane="best" from="620366463#0" to="1049318469#0"/>
    <trip id="veh104" type="veh_passenger" depart="174.90" departLane="best" departSpeed="max" from="-23887717#1" to="1020908653"/>
    <trip id="veh105" type="veh_passenger" depart="176.58" departLane="best" departSpeed="max" from="991196427" to="1049318474#0"/>
    <trip id="veh106" type="veh_passenger" depart="178.26" departLane="best" from="435724119" to="23887717#0"/>
    <trip id="veh107" type="veh_passenger" depart="179.94" departLane="best" departSpeed="max" from="991196427" to="385889739#0"/>
    <trip id="veh108" type="veh_passenger" depart="181.62" departLane="best" departSpeed="max" from="991196427" to="-435724074"/>
    <trip id="veh109" type="veh_passenger" depart="183.30" departLane="best" departSpeed="max" from="991196427" to="1020908652"/>
    <trip id="veh110" type="veh_passenger" depart="184.99" departLane="best" departSpeed="max" from="991196427" to="1049318472#0"/>
    <trip id="veh111" type="veh_passenger" depart="186.67" departLane="best" departSpeed="max" from="48785101#0" to="1051441726#3"/>
    <trip id="veh112" type="veh_passenger" depart="188.35" departLane="best" from="435724110" to="385889739#0"/>
    <trip id="veh113" type="veh_passenger" depart="190.03" departLane="best" from="1049318472#0" to="488107951"/>
    <trip id="veh114" type="veh_passenger" depart="191.71" departLane="best" departSpeed="max" from="435724041" to="488107952"/>
    <trip id="veh115" type="veh_passenger" depart="193.39" departLane="best" departSpeed="max" from="48785101#0" to="1051441726#3"/>
    <trip id="veh116" type="veh_passenger" depart="195.08" departLane="best" departSpeed="max" from="1051036581#0" to="23887717#0"/>
    <trip id="veh117" type="veh_passenger" depart="196.76" departLane="best" from="-934416472" to="23887717#0"/>
    <trip id="veh118" type="veh_passenger" depart="198.44" departLane="best" departSpeed="max" from="991196427" to="435724119"/>
    <trip id="veh119" type="veh_passenger" depart="200.12" departLane="best" departSpeed="max" from="4477285#0" to="320480951#0"/>
    <trip id="veh120" type="veh_passenger" depart="201.80" departLane="best" departSpeed="max" from="435704692" to="1049318469#0"/>
    <trip id="veh121" type="veh_passenger" depart="203.48" departLane="best" departSpeed="max" from="435724014#0" to="932951023#0"/>
    <trip id="veh122" type="veh_passenger" depart="205.17" departLane="best" from="620366463#0" to="1015181072"/>
    <trip id="veh123" type="veh_passenger" depart="206.85" departLane="best" from="-435724074" to="385889739#0"/>
    <trip id="veh124" type="veh_passenger" depart="208.53" departLane="best" from="620366464#0" to="59678310"/>
    <trip id="veh125" type="veh_passenger" depart="210.21" departLane="best" departSpeed="max" from="4477285#0" to="1049318469#0"/>
    <trip id="veh126" type="veh_passenger" depart="211.89" departLane="best" departSpeed="max" from="1049318468#0" to="-255563525#1"/>
    <trip id="veh127" type="veh_passenger" depart="213.58" departLane="best" from="1049318471#0" to="320480951#0"/>
    <trip id="veh128" type="veh_passenger" depart="215.26" departLane="best" from="657718778#0" to="-435704691#1"/>
    <trip id="veh129" type="veh_passenger" depart="216.94" departLane="best" departSpeed="max" from="435724014#0" to="1049318469#0"/>
    <trip id="veh130" type="veh_passenger" depart="218.62" departLane="best" departSpeed="max" from="4477285#0" to="-134319743#1"/>
    <trip id="veh131" type="veh_passenger" depart="220.30" departLane="best" from="488107951" to="59678310"/>
    <trip id="veh132" type="veh_passenger" depart="221.98" departLane="best" from="-805911049" to="23887717#0"/>
    <trip id="veh134" type="veh_passenger" depart="225.35" departLane="best" from="435724021" to="-255563525#1"/>
    <trip id="veh135" type="veh_passenger" depart="227.03" departLane="best" from="1049318472#0" to="633949079#0"/>
    <trip id="veh136" type="veh_passenger" depart="228.71" departLane="best" departSpeed="max" from="4477285#0" to="981135346#0"/>
    <trip id="veh138" type="veh_passenger" depart="232.07" departLane="best" from="932951026#0" to="435724022#0"/>
    <trip id="veh139" type="veh_passenger" depart="233.76" departLane="best" departSpeed="max" from="48785101#0" to="320480951#0"/>
    <trip id="veh140" type="veh_passenger" depart="235.44" departLane="best" from="624405242#0" to="385889739#0"/>
    <trip id="veh141" type="veh_passenger" depart="237.12" departLane="best" departSpeed="max" from="435724014#0" to="1049318471#0"/>
    <trip id="veh142" type="veh_passenger" depart="238.80" departLane="best" from="1049318471#0" to="435724077#0"/>
    <trip id="veh143" type="veh_passenger" depart="240.48" departLane="best" from="488107952" to="385889739#0"/>
    <trip id="veh144" type="veh_passenger" depart="242.16" departLane="best" from="1049318475#0" to="1051441726#3"/>
    <trip id="veh145" type="veh_passenger" depart="243.85" departLane="best" departSpeed="max" from="435724041" to="-805911049"/>
    <trip id="veh146" type="veh_passenger" depart="245.53" departLane="best" departSpeed="max" from="1049318468#0" to="48785308#0"/>
    <trip id="veh147" type="veh_passenger" depart="247.21" departLane="best" departSpeed="max" from="48785101#0" to="-255563525#1"/>
    <trip id="veh148" type="veh_passenger" depart="248.89" departLane="best" from="433781990#0" to="385889739#0"/>
    <trip id="veh149" type="veh_passenger" depart="250.57" departLane="best" from="805911051" to="59678310"/>
    <trip id="veh150" type="veh_passenger" depart="252.25" departLane="best" departSpeed="max" from="255563525#0" to="-134319743#1"/>
    <trip id="veh152" type="veh_passenger" depart="255.62" departLane="best" from="433783097#0" to="59678310"/>
    <trip id="veh153" type="veh_passenger" depart="257.30" departLane="best" departSpeed="max" from="435724041" to="435724013#0"/>
    <trip id="veh154" type="veh_passenger" depart="258.98" departLane="best" from="435704691#0" to="-255563525#1"/>
    <trip id="veh155" type="veh_passenger" depart="260.66" departLane="best" departSpeed="max" from="435724014#0" to="-616249736"/>
    <trip id="veh156" type="veh_passenger" depart="262.34" departLane="best" from="435724112" to="-255563525#1"/>
    <trip id="veh157" type="veh_passenger" depart="264.03" departLane="best" from="1002803297#0" to="320480951#0"/>
    <trip id="veh158" type="veh_passenger" depart="265.71" departLane="best" from="-433785009#1" to="23700520#2"/>
    <trip id="veh159" type="veh_passenger" depart="267.39" departLane="best" departSpeed="max" from="1049318468#0" to="1051441726#3"/>
    <trip id="veh160" type="veh_passenger" depart="269.07" departLane="best" from="488107952" to="23700520#2"/>
    <trip id="veh161" type="veh_passenger" depart="270.75" departLane="best" from="1049318472#0" to="-435704692"/>
    <trip id="veh162" type="veh_passenger" depart="272.43" departLane="best" departSpeed="max" from="-23887717#1" to="385889739#0"/>
    <trip id="veh163" type="veh_passenger" depart="274.12" departLane="best" departSpeed="max" from="991196427" to="145857414#0"/>
    <trip id="veh164" type="veh_passenger" depart="275.80" departLane="best" departSpeed="max" from="4477285#0" to="59678310"/>
    <trip id="veh165" type="veh_passenger" depart="277.48" departLane="best" departSpeed="max" from="4477285#0" to="59678310"/>
    <trip id="veh166" type="veh_passenger" depart="279.16" departLane="best" departSpeed="max" from="991196427" to="1035941401#0"/>
    <trip id="veh167" type="veh_passenger" depart="280.84" departLane="best" departSpeed="max" from="-23887717#1" to="1002803297#0"/>
    <trip id="veh168" type="veh_passenger" depart="282.52" departLane="best" departSpeed="max" from="435724041" to="1049318469#0"/>
    <trip id="veh169" type="veh_passenger" depart="284.21" departLane="best" from="1020908652" to="435724021"/>
    <trip id="veh170" type="veh_passenger" depart="285.89" departLane="best" from="620366464#0" to="934416472"/>
    <trip id="veh171" type="veh_passenger" depart="287.57" departLane="best" from="-805911049" to="-255563525#1"/>
    <trip id="veh172" type="veh_passenger" depart="289.25" departLane="best" departSpeed="max" from="1051036581#0" to="435724119"/>
    <trip id="veh173" type="veh_passenger" depart="290.93" departLane="best" departSpeed="max" from="991196427" to="23887717#0"/>
    <trip id="veh174" type="veh_passenger" depart="292.61" departLane="best" from="-620293814#1" to="59678310"/>
    <trip id="veh175" type="veh_passenger" depart="294.30" departLane="best" departSpeed="max" from="-805924007" to="981135346#0"/>
    <trip id="veh176" type="veh_passenger" depart="295.98" departLane="best" from="433785009#0" to="23700520#2"/>
    <trip id="veh177" type="veh_passenger" depart="297.66" departLane="best" departSpeed="max" from="435724014#0" to="134319745#0"/>
    <trip id="veh178" type="veh_passenger" depart="299.34" departLane="best" from="657718778#0" to="620366464#0"/>
    <trip id="veh179" type="veh_passenger" depart="301.02" departLane="best" departSpeed="max" from="48785101#0" to="315089479#0"/>
    <trip id="veh180" type="veh_passenger" depart="302.70" departLane="best" from="48785101#3" to="934416472"/>
    <trip id="veh182" type="veh_passenger" depart="306.07" departLane="best" departSpeed="max" from="435724041" to="320480951#0"/>
    <trip id="veh183" type="veh_passenger" depart="307.75" departLane="best" from="435704691#0" to="5263032"/>
    <trip id="veh184" type="veh_passenger" depart="309.43" departLane="best" from="1049318474#0" to="657718778#0"/>
    <trip id="veh185" type="veh_passenger" depart="311.11" departLane="best" from="932951026#0" to="1049318469#0"/>
    <trip id="veh186" type="veh_passenger" depart="312.79" departLane="best" from="657718778#0" to="1020908652"/>
    <trip id="veh187" type="veh_passenger" depart="314.48" departLane="best" departSpeed="max" from="1049318468#0" to="620293814#0"/>
    <trip id="veh188" type="veh_passenger" depart="316.16" departLane="best" departSpeed="max" from="48785101#0" to="1049318473#0"/>
    <trip id="veh189" type="veh_passenger" depart="317.84" departLane="best" departSpeed="max" from="435724014#0" to="59678310"/>
    <trip id="veh190" type="veh_passenger" depart="319.52" departLane="best" departSpeed="max" from="4477285#0" to="435724110"/>
    <trip id="veh191" type="veh_passenger" depart="321.20" departLane="best" departSpeed="max" from="435724014#0" to="620293814#0"/>
    <trip id="veh192" type="veh_passenger" depart="322.89" departLane="best" from="-616249736" to="1049318469#0"/>
    <trip id="veh193" type="veh_passenger" depart="324.57" departLane="best" departSpeed="max" from="435724041" to="320480951#0"/>
    <trip id="veh194" type="veh_passenger" depart="326.25" departLane="best" from="435724022#0" to="23887717#0"/>
    <trip id="veh195" type="veh_passenger" depart="327.93" departLane="best" from="48785308#0" to="1051441726#3"/>
    <trip id="veh196" type="veh_passenger" depart="329.61" departLane="best" departSpeed="max" from="48785101#0" to="1049318472#0"/>
    <trip id="veh197" type="veh_passenger" depart="331.29" departLane="best" from="1049318472#0" to="-435724077#1"/>
    <trip id="veh198" type="veh_passenger" depart="332.98" departLane="best" departSpeed="max" from="435724041" to="59678310"/>
    <trip id="veh199" type="veh_passenger" depart="334.66" departLane="best" from="1020908653" to="1049318469#0"/>
    <trip id="veh200" type="veh_passenger" depart="336.34" departLane="best" departSpeed="max" from="435724014#0" to="5263032"/>
    <trip id="veh201" type="veh_passenger" depart="338.02" departLane="best" departSpeed="max" from="991196427" to="385889739#0"/>
    <trip id="veh202" type="veh_passenger" depart="339.70" departLane="best" from="1035941401#0" to="1049318469#0"/>
    <trip id="veh203" type="veh_passenger" depart="341.38" departLane="best" from="1020908653" to="-134319745#1"/>
    <trip id="veh204" type="veh_passenger" depart="343.07" departLane="best" departSpeed="max" from="991196427" to="385889739#0"/>
    <trip id="veh205" type="veh_passenger" depart="344.75" departLane="best" from="932951024#0" to="320480951#0"/>
    <trip id="veh206" type="veh_passenger" depart="346.43" departLane="best" departSpeed="max" from="991196427" to="320480951#0"/>
    <trip id="veh207" type="veh_passenger" depart="348.11" departLane="best" from="624405242#0" to="23887717#0"/>
    <trip id="veh208" type="veh_passenger" depart="349.79" departLane="best" departSpeed="max" from="991196427" to="-435724077#1"/>
    <trip id="veh209" type="veh_passenger" depart="351.47" departLane="best" from="620293814#0" to="1049318469#0"/>
    <trip id="veh210" type="veh_passenger" depart="353.16" departLane="best" departSpeed="max" from="991196427" to="1051441726#3"/>
    <trip id="veh211" type="veh_passenger" depart="354.84" departLane="best" from="435724112" to="435724022#0"/>
    <trip id="veh212" type="veh_passenger" depart="356.52" departLane="best" departSpeed="max" from="1049318468#0" to="1035941401#0"/>
    <trip id="veh213" type="veh_passenger" depart="358.20" departLane="best" from="1020908652" to="-435704691#1"/>
    <trip id="veh214" type="veh_passenger" depart="359.88" departLane="best" from="-1049318473#1" to="320480951#0"/>
    <trip id="veh215" type="veh_passenger" depart="361.56" departLane="best" departSpeed="max" from="1049318468#0" to="488107951"/>
    <trip id="veh216" type="veh_passenger" depart="363.25" departLane="best" departSpeed="max" from="48785101#0" to="320480951#0"/>
    <trip id="veh217" type="veh_passenger" depart="364.93" departLane="best" departSpeed="max" from="4477285#0" to="932951023#0"/>
    <trip id="veh218" type="veh_passenger" depart="366.61" departLane="best" departSpeed="max" from="4477285#0" to="932951023#0"/>
    <trip id="veh219" type="veh_passenger" depart="368.29" departLane="best" from="624405242#0" to="-433785009#1"/>
    <trip id="veh220" type="veh_passenger" depart="369.97" departLane="best" from="1020908652" to="1051441726#3"/>
    <trip id="veh221" type="veh_passenger" depart="371.65" departLane="best" departSpeed="max" from="4477285#0" to="48785308#0"/>
    <trip id="veh222" type="veh_passenger" depart="373.34" departLane="best" departSpeed="max" from="991196427" to="320480951#0"/>
    <trip id="veh223" type="veh_passenger" depart="375.02" departLane="best" departSpeed="max" from="-23887717#1" to="24220202#0"/>
    <trip id="veh225" type="veh_passenger" depart="378.38" departLane="best" from="-435724077#1" to="934416472"/>
    <trip id="veh226" type="veh_passenger" depart="380.06" departLane="best" from="633949078#0" to="433783097#0"/>
    <trip id="veh227" type="veh_passenger" depart="381.74" departLane="best" departSpeed="max" from="4477285#0" to="1049318472#0"/>
    <trip id="veh228" type="veh_passenger" depart="383.43" departLane="best" departSpeed="max" from="-23887717#1" to="59678310"/>
    <trip id="veh229" type="veh_passenger" depart="385.11" departLane="best" departSpeed="max" from="435724014#0" to="435724112"/>
    <trip id="veh230" type="veh_passenger" depart="386.79" departLane="best" from="151989531#0" to="134319743#0"/>
    <trip id="veh231" type="veh_passenger" depart="388.47" departLane="best" departSpeed="max" from="4477285#0" to="805911051"/>
    <trip id="veh232" type="veh_passenger" depart="390.15" departLane="best" departSpeed="max" from="1051036581#0" to="932951024#0"/>
    <trip id="veh233" type="veh_passenger" depart="391.83" departLane="best" from="620366464#0" to="385889739#0"/>
    <trip id="veh234" type="veh_passenger" depart="393.52" departLane="best" departSpeed="max" from="435704692" to="1051441726#3"/>
    <trip id="veh235" type="veh_passenger" depart="395.20" departLane="best" from="433781990#0" to="385889739#0"/>
    <trip id="veh236" type="veh_passenger" depart="396.88" departLane="best" from="1035941401#0" to="23700520#2"/>
    <trip id="veh237" type="veh_passenger" depart="398.56" departLane="best" from="435704691#0" to="48785308#0"/>
    <trip id="veh238" type="veh_passenger" depart="400.24" departLane="best" departSpeed="max" from="-805924007" to="981135345#0"/>
    <trip id="veh239" type="veh_passenger" depart="401.92" departLane="best" from="435724110" to="1049318469#0"/>
    <trip id="veh241" type="veh_passenger" depart="405.29" departLane="best" departSpeed="max" from="435724041" to="-435704692"/>
    <trip id="veh242" type="veh_passenger" depart="406.97" departLane="best" departSpeed="max" from="991196427" to="932951023#0"/>
    <trip id="veh243" type="veh_passenger" depart="408.65" departLane="best" from="435724013#0" to="-435724077#1"/>
    <trip id="veh244" type="veh_passenger" depart="410.33" departLane="best" from="633949078#0" to="320480951#0"/>