<?xml version="1.0" encoding="UTF-8"?>

<!-- generated on 2022-06-30 10:21:38 by Eclipse SUMO GUI Version 1.13.0
-->

<configuration xmlns:xsi="http://www.w3.org/2001/XMLSchema-instance" xsi:noNamespaceSchemaLocation="http://sumo.dlr.de/xsd/sumoConfiguration.xsd">

    <input>
        <net-file value="testnet.net.xml"/>
        <route-files value="test.rou.xml"/>
    </input>
    <output>
        <statistic-output value="stats.xml"/>
        <lanechange-output value="lchg.xml"/>
    </output>
    <report>
        <duration-log.statistics value="true"/>
        <tripinfo-output vale="true"/>
      
    </report>

</configuration>
